20
Coordinates from ORCA-job 11 Relaxed Surface Scan Step 1
  C      -3.365903      1.288043      0.181461
  O      -2.224145      1.126642      0.429002
  O      -4.242712      0.343106      0.503727
  C      -3.867876      2.526707     -0.524604
  H      -4.261681      2.269847     -1.508888
  H      -4.656695      3.026797      0.034367
  H      -3.026250      3.201505     -0.645711
  C      -5.653976      0.418938      0.370497
  H      -5.904370      1.039728     -0.490449
  C      -6.258243      1.029695      1.626735
  H      -5.917791      2.055634      1.770783
  H      -7.347082      1.044331      1.557053
  H      -5.972522      0.459861      2.509769
  C      -6.149810     -0.992210      0.062134
  H      -7.231825     -0.938166     -0.087592
  H      -5.715755     -1.288444     -0.895485
  C      -5.819574     -2.051196      1.109683
  H      -6.145469     -3.033329      0.763144
  H      -4.746742     -2.095714      1.293411
  H      -6.320515     -1.859631      2.060005
20
Coordinates from ORCA-job 11 Relaxed Surface Scan Step 2
  C      -3.363597      1.273776      0.162574
  O      -2.217338      1.091858      0.372146
  O      -4.240599      0.323463      0.469409
  C      -3.870646      2.547362     -0.475323
  H      -4.279934      2.339521     -1.464838
  H      -4.647999      3.024616      0.117269
  H      -3.026905      3.222581     -0.578064
  C      -5.651834      0.404953      0.340023
  H      -5.896908      1.003381     -0.538853
  C      -6.256358      1.041821      1.583633
  H      -5.916949      2.069227      1.714193
  H      -7.344937      1.056431      1.510777
  H      -5.974983      0.485581      2.476704
  C      -6.159071     -1.009811      0.068237
  H      -7.244282     -0.950093     -0.056000
  H      -5.749003     -1.327366     -0.893015
  C      -5.811631     -2.050873      1.128251
  H      -6.151728     -3.037042      0.807858
  H      -4.735173     -2.098998      1.287955
  H      -6.289059     -1.838242      2.086105
20
Coordinates from ORCA-job 11 Relaxed Surface Scan Step 3
  C      -3.360039      1.260535      0.140059
  O      -2.209021      1.058129      0.298656
  O      -4.236024      0.306828      0.441647
  C      -3.873338      2.567665     -0.422530
  H      -4.314423      2.409891     -1.407598
  H      -4.625700      3.026406      0.213738
  H      -3.024662      3.237238     -0.521781
  C      -5.646885      0.390795      0.311132
  H      -5.882196      0.963545     -0.587523
  C      -6.258898      1.053094      1.538426
  H      -5.923750      2.082385      1.657517
  H      -7.346804      1.065025      1.457206
  H      -5.984901      0.510942      2.442473
  C      -6.164892     -1.026696      0.074846
  H      -7.252496     -0.958524     -0.027325
  H      -5.776458     -1.366222     -0.887781
  C      -5.804332     -2.050034      1.147694
  H      -6.159333     -3.039065      0.853336
  H      -4.725221     -2.104465      1.285697
  H      -6.259561     -1.815330      2.111151
20
Coordinates from ORCA-job 11 Relaxed Surface Scan Step 4
  C      -3.355232      1.237097      0.077453
  O      -2.203800      0.986514      0.128840
  O      -4.238951      0.295357      0.394180
  C      -3.855733      2.610580     -0.310807
  H      -4.623170      2.575209     -1.081597
  H      -4.270450      3.117984      0.559032
  H      -3.005364      3.178757     -0.674927
  C      -5.650721      0.361876      0.254042
  H      -5.886234      0.900986     -0.664498
  C      -6.286227      1.061531      1.448006
  H      -6.019310      2.115919      1.493948
  H      -7.373514      0.999807      1.382589
  H      -5.969269      0.594731      2.379898
  C      -6.143818     -1.070869      0.061708
  H      -7.226900     -1.024306     -0.088220
  H      -5.711711     -1.445566     -0.868511
  C      -5.813788     -2.039153      1.193626
  H      -6.140961     -3.046440      0.930703
  H      -4.740584     -2.069425      1.378168
  H      -6.313198     -1.768447      2.125406
20
Coordinates from ORCA-job 11 Relaxed Surface Scan Step 5
  C      -3.359029      1.224190      0.024820
  O      -2.213127      0.952693     -0.039560
  O      -4.234009      0.280690      0.362726
  C      -3.854245      2.634370     -0.208238
  H      -4.766868      2.685004     -0.796923
  H      -4.043016      3.106839      0.756080
  H      -3.064027      3.182787     -0.712088
  C      -5.645082      0.336800      0.207472
  H      -5.867679      0.838876     -0.735400
  C      -6.300925      1.076362      1.365850
  H      -6.050750      2.135594      1.370268
  H      -7.386504      0.994709      1.295210
  H      -5.984731      0.652737      2.318582
  C      -6.132019     -1.103239      0.060103
  H      -7.213211     -1.063034     -0.106265
  H      -5.686205     -1.510535     -0.849543
  C      -5.816097     -2.029329      1.230568
  H      -6.143032     -3.045055      1.002099
  H      -4.744704     -2.055192      1.426416
  H      -6.323675     -1.723126      2.146861
20
Coordinates from ORCA-job 11 Relaxed Surface Scan Step 6
  C      -3.363642      1.215771     -0.042726
  O      -2.242641      0.926918     -0.265999
  O      -4.220987      0.272118      0.346219
  C      -3.847839      2.647505     -0.115314
  H      -4.782700      2.756035     -0.660488
  H      -3.996038      3.026043      0.896042
  H      -3.074583      3.235571     -0.600327
  C      -5.631489      0.318497      0.175705
  H      -5.831248      0.783040     -0.791089
  C      -6.313832      1.088901      1.299457
  H      -6.090711      2.152812      1.272021
  H      -7.396236      0.978888      1.220975
  H      -5.999784      0.704795      2.269649
  C      -6.125248     -1.122694      0.069654
  H      -7.207805     -1.074100     -0.092669
  H      -5.686647     -1.560394     -0.829205
  C      -5.813056     -2.016630      1.265774
  H      -6.150965     -3.035450      1.069376
  H      -4.740879     -2.047241      1.456884
  H      -6.312603     -1.678244      2.175101
20
Coordinates from ORCA-job 11 Relaxed Surface Scan Step 7
  C      -3.390779      1.215966     -0.146308
  O      -2.354154      0.911519     -0.616482
  O      -4.212518      0.275585      0.333186
  C      -3.814170      2.659680      0.005611
  H      -4.745330      2.865973     -0.519835
  H      -3.956769      2.895594      1.059379
  H      -3.028112      3.286554     -0.404716
  C      -5.622972      0.296527      0.142553
  H      -5.802215      0.717429     -0.848009
  C      -6.340722      1.098897      1.222314
  H      -6.157333      2.167397      1.147766
  H      -7.417625      0.946172      1.141326
  H      -6.022892      0.771310      2.212016
  C      -6.109636     -1.149298      0.083074
  H      -7.191787     -1.104623     -0.089872
  H      -5.662006     -1.619148     -0.794624
  C      -5.807260     -1.996839      1.314822
  H      -6.140886     -3.023319      1.154214
  H      -4.736579     -2.017703      1.516115
  H      -6.315190     -1.625528      2.206511
20
Coordinates from ORCA-job 11 Relaxed Surface Scan Step 8
  C      -3.988054      1.509010     -0.358117
  O      -4.020757      1.275702     -1.518247
  O      -4.931886      1.147675      0.494959
  C      -2.877188      2.246867      0.335110
  H      -3.283624      3.103275      0.872230
  H      -2.409293      1.589795      1.068448
  H      -2.141958      2.572720     -0.394759
  C      -6.071110      0.410508      0.042959
  H      -6.230363      0.655308     -1.004095
  C      -7.252885      0.893277      0.863649
  H      -7.422858      1.955736      0.687167
  H      -8.156343      0.350357      0.581649
  H      -7.082132      0.752932      1.930668
  C      -5.790202     -1.088213      0.136169
  H      -6.668092     -1.611755     -0.252802
  H      -4.972493     -1.315106     -0.551003
  C      -5.450427     -1.612222      1.528561
  H      -5.200127     -2.673469      1.482147
  H      -4.594057     -1.085453      1.951152
  H      -6.285085     -1.504800      2.223194
20
Coordinates from ORCA-job 11 Relaxed Surface Scan Step 9
  C      -4.016943      1.583681     -0.376611
  O      -4.130576      1.507529     -1.552230
  O      -4.887092      1.085984      0.486661
  C      -2.870756      2.251984      0.329661
  H      -3.251367      3.012183      1.011054
  H      -2.334451      1.513668      0.926141
  H      -2.200805      2.698423     -0.399257
  C      -6.042560      0.375098      0.033769
  H      -6.181159      0.602771     -1.019303
  C      -7.226073      0.899519      0.826815
  H      -7.371120      1.961460      0.625852
  H      -8.136991      0.370555      0.541945
  H      -7.074648      0.777698      1.899072
  C      -5.792977     -1.126054      0.162532
  H      -6.675300     -1.641949     -0.226502
  H      -4.970156     -1.383278     -0.508820
  C      -5.479086     -1.627134      1.569263
  H      -5.247626     -2.693472      1.547942
  H      -4.618804     -1.106060      1.990475
  H      -6.320445     -1.490463      2.250580
20
Coordinates from ORCA-job 11 Relaxed Surface Scan Step 10
  C      -4.047306      1.654880     -0.382840
  O      -4.251599      1.730193     -1.546075
  O      -4.829669      1.013180      0.469640
  C      -2.868216      2.269353      0.318169
  H      -3.215268      2.919018      1.121011
  H      -2.265580      1.480929      0.769550
  H      -2.271203      2.832519     -0.393071
  C      -6.007075      0.334543      0.022991
  H      -6.131403      0.546784     -1.034522
  C      -7.184505      0.907304      0.792399
  H      -7.301676      1.967326      0.564297
  H      -8.106243      0.395108      0.511290
  H      -7.045994      0.807314      1.868688
  C      -5.796370     -1.168636      0.186341
  H      -6.681804     -1.672894     -0.210844
  H      -4.965725     -1.457394     -0.462493
  C      -5.520009     -1.648811      1.608069
  H      -5.312532     -2.720290      1.611883
  H      -4.655984     -1.138279      2.034304
  H      -6.370775     -1.480002      2.270254
20
Coordinates from ORCA-job 11 Relaxed Surface Scan Step 11
  C      -4.082153      1.718432     -0.375212
  O      -4.383299      1.934631     -1.499144
  O      -4.771399      0.939650      0.442807
  C      -2.869030      2.285530      0.307357
  H      -3.170274      2.818505      1.208687
  H      -2.210987      1.471020      0.610761
  H      -2.345933      2.953977     -0.370146
  C      -5.971547      0.293435      0.008339
  H      -6.087956      0.488906     -1.053081
  C      -7.138329      0.915683      0.756408
  H      -7.227502      1.971944      0.499599
  H      -8.071648      0.420691      0.482444
  H      -7.008553      0.839350      1.835750
  C      -5.799504     -1.209769      0.206886
  H      -6.688029     -1.703382     -0.196613
  H      -4.963451     -1.529535     -0.420042
  C      -5.558161     -1.665842      1.642813
  H      -5.374830     -2.741317      1.672560
  H      -4.690121     -1.165346      2.072678
  H      -6.416229     -1.464419      2.286188
20
Coordinates from ORCA-job 11 Relaxed Surface Scan Step 12
  C      -4.120925      1.773987     -0.353961
  O      -4.524000      2.119847     -1.411675
  O      -4.715954      0.869957      0.406586
  C      -2.871584      2.297591      0.297088
  H      -3.116008      2.717572      1.272411
  H      -2.174510      1.475165      0.457913
  H      -2.417165      3.053933     -0.336023
  C      -5.938019      0.254522     -0.010102
  H      -6.051320      0.429038     -1.075482
  C      -7.091084      0.923979      0.718860
  H      -7.155709      1.974262      0.432435
  H      -8.035453      0.443998      0.455987
  H      -6.964438      0.872348      1.800117
  C      -5.800851     -1.246605      0.224219
  H      -6.691631     -1.731428     -0.184834
  H      -4.960002     -1.595157     -0.380274
  C      -5.592137     -1.676694      1.673184
  H      -5.429579     -2.754498      1.728195
  H      -4.721684     -1.183595      2.106823
  H      -6.456883     -1.446077      2.297574
20
Coordinates from ORCA-job 11 Relaxed Surface Scan Step 13
  C      -4.161529      1.821237     -0.315270
  O      -4.659490      2.280678     -1.286061
  O      -4.674672      0.814331      0.371449
  C      -2.872195      2.297688      0.292401
  H      -3.044676      2.598514      1.325545
  H      -2.151684      1.479862      0.303356
  H      -2.481997      3.132494     -0.282282
  C      -5.911810      0.221332     -0.032494
  H      -6.018063      0.372696     -1.103002
  C      -7.058166      0.928407      0.671996
  H      -7.103271      1.971459      0.358662
  H      -8.008250      0.457118      0.414023
  H      -6.939739      0.899221      1.755162
  C      -5.803337     -1.275350      0.239377
  H      -6.701909     -1.753350     -0.160239
  H      -4.967108     -1.654051     -0.353144
  C      -5.607284     -1.672692      1.699477
  H      -5.466380     -2.751804      1.781925
  H      -4.728330     -1.186281      2.123229
  H      -6.469044     -1.409366      2.314932
20
Coordinates from ORCA-job 11 Relaxed Surface Scan Step 14
  C      -4.199228      1.862085     -0.261390
  O      -4.781380      2.420696     -1.127943
  O      -4.645233      0.772667      0.340030
  C      -2.868808      2.290302      0.291056
  H      -2.958985      2.470491      1.362109
  H      -2.142693      1.489492      0.151661
  H      -2.534516      3.191423     -0.214518
  C      -5.891462      0.194966     -0.057927
  H      -5.982249      0.318389     -1.135257
  C      -7.040358      0.927300      0.617131
  H      -7.077275      1.962246      0.280508
  H      -7.989391      0.453251      0.360431
  H      -6.932942      0.919001      1.702017
  C      -5.807732     -1.295535      0.253191
  H      -6.720924     -1.763635     -0.124178
  H      -4.984372     -1.707967     -0.334693
  C      -5.607986     -1.657421      1.722126
  H      -5.491065     -2.736955      1.832047
  H      -4.714369     -1.180512      2.125215
  H      -6.457969     -1.358139      2.337426
20
Coordinates from ORCA-job 11 Relaxed Surface Scan Step 15
  C      -4.231836      1.898525     -0.191713
  O      -4.883302      2.544503     -0.940053
  O      -4.627223      0.744563      0.316783
  C      -2.860491      2.276972      0.293335
  H      -2.858836      2.331920      1.381849
  H      -2.146840      1.506610      0.001398
  H      -2.573420      3.234414     -0.131197
  C      -5.876134      0.174762     -0.085668
  H      -5.939412      0.266729     -1.171074
  C      -7.039822      0.918740      0.552254
  H      -7.083176      1.943973      0.192716
  H      -7.979373      0.426286      0.295592
  H      -6.946644      0.934208      1.638679
  C      -5.815705     -1.308064      0.266482
  H      -6.751881     -1.759329     -0.073357
  H      -5.016552     -1.760648     -0.325092
  C      -5.593827     -1.631594      1.741398
  H      -5.506393     -2.710612      1.880255
  H      -4.677729     -1.170531      2.110394
  H      -6.420338     -1.289284      2.366058
20
Coordinates from ORCA-job 11 Relaxed Surface Scan Step 16
  C      -4.259537      1.932863     -0.105796
  O      -4.969142      2.660575     -0.712279
  O      -4.612499      0.722369      0.290989
  C      -2.849467      2.262420      0.297091
  H      -2.741333      2.164787      1.377143
  H      -2.165970      1.551831     -0.167824
  H      -2.607234      3.273780     -0.015322
  C      -5.862083      0.156187     -0.117249
  H      -5.893242      0.211558     -1.209625
  C      -7.048993      0.903415      0.477552
  H      -7.117986      1.911976      0.082531
  H      -7.970334      0.371953      0.233365
  H      -6.967779      0.960662      1.563772
  C      -5.824855     -1.316653      0.280465
  H      -6.786191     -1.746390     -0.014302
  H      -5.056338     -1.814351     -0.315416
  C      -5.573356     -1.597705      1.759546
  H      -5.533336     -2.674223      1.934797
  H      -4.625910     -1.168991      2.085112
  H      -6.363349     -1.193920      2.394490
20
Coordinates from ORCA-job 11 Relaxed Surface Scan Step 17
  C      -4.283294      1.965966      0.008899
  O      -5.048753      2.777994     -0.383714
  O      -4.595209      0.703249      0.247181
  C      -2.831344      2.242216      0.284813
  H      -2.576353      1.928892      1.296800
  H      -2.219693      1.658958     -0.404131
  H      -2.630846      3.301445      0.154507
  C      -5.848508      0.135811     -0.153225
  H      -5.857439      0.149572     -1.249606
  C      -7.059367      0.882195      0.397717
  H      -7.184949      1.851610     -0.070101
  H      -7.954444      0.285150      0.215294
  H      -6.966954      1.032145      1.474183
  C      -5.819599     -1.324011      0.293329
  H      -6.786014     -1.752465      0.013504
  H      -5.053443     -1.849549     -0.281034
  C      -5.575921     -1.553155      1.782559
  H      -5.560002     -2.622800      1.999050
  H      -4.619455     -1.133605      2.093118
  H      -6.357346     -1.107474      2.399898
20
Coordinates from ORCA-job 11 Relaxed Surface Scan Step 18
  C      -4.297711      1.979229      0.155724
  O      -5.100742      2.843392      0.074569
  O      -4.576544      0.686123      0.168980
  C      -2.815974      2.220201      0.249637
  H      -2.399271      1.679743      1.098838
  H      -2.336459      1.836630     -0.651662
  H      -2.625088      3.284872      0.346151
  C      -5.839876      0.110276     -0.192528
  H      -5.848370      0.076945     -1.287940
  C      -7.067449      0.862565      0.312570
  H      -7.220035      1.798644     -0.211414
  H      -7.941912      0.227496      0.159571
  H      -6.989918      1.084680      1.376444
  C      -5.800809     -1.331196      0.310433
  H      -6.750823     -1.789236      0.022136
  H      -5.010011     -1.863321     -0.222690
  C      -5.593218     -1.495248      1.813346
  H      -5.559245     -2.554546      2.074009
  H      -4.654690     -1.042040      2.131803
  H      -6.400789     -1.043064      2.391064
20
Coordinates from ORCA-job 11 Relaxed Surface Scan Step 19
  C      -4.302792      1.927244      0.308061
  O      -5.094942      2.745926      0.625462
  O      -4.578176      0.679861     -0.030565
  C      -2.820820      2.180175      0.233526
  H      -2.282105      1.427997      0.808474
  H      -2.496630      2.095488     -0.804266
  H      -2.601220      3.175182      0.609440
  C      -5.861126      0.075007     -0.259158
  H      -5.921342     -0.034247     -1.344317
  C      -7.082470      0.855548      0.209940
  H      -7.196063      1.793716     -0.324068
  H      -7.958552      0.235165      0.009414
  H      -7.053433      1.081831      1.272672
  C      -5.777153     -1.329023      0.336507
  H      -6.695852     -1.854936      0.063239
  H      -4.955314     -1.853402     -0.155518
  C      -5.578817     -1.388994      1.847881
  H      -5.482265     -2.425872      2.174417
  H      -4.671959     -0.862150      2.146574
  H      -6.417904     -0.952374      2.391324
20
Coordinates from ORCA-job 11 Relaxed Surface Scan Step 20
  C      -4.297458      1.763729      0.445104
  O      -4.989494      2.315706      1.230376
  O      -4.679397      0.792930     -0.363816
  C      -2.839438      2.076385      0.238827
  H      -2.245516      1.204838      0.515393
  H      -2.648865      2.283817     -0.813500
  H      -2.555949      2.927954      0.850532
  C      -5.922381      0.073334     -0.350084
  H      -6.072208     -0.148147     -1.403777
  C      -7.143265      0.858973      0.107904
  H      -7.226281      1.794922     -0.443571
  H      -8.025575      0.255491     -0.117099
  H      -7.136163      1.095457      1.165914
  C      -5.693020     -1.262202      0.358500
  H      -6.515706     -1.931374      0.090772
  H      -4.795422     -1.702917     -0.080883
  C      -5.542112     -1.210137      1.876053
  H      -5.322687     -2.205954      2.265086
  H      -4.727516     -0.551829      2.180850
  H      -6.450481     -0.858832      2.366459
20
Coordinates from ORCA-job 11 Relaxed Surface Scan Step 21
  C      -4.239862      1.655612      0.515567
  O      -4.849032      1.991307      1.473706
  O      -4.667375      0.803303     -0.396481
  C      -2.855934      2.142668      0.180589
  H      -2.166103      1.298544      0.196134
  H      -2.843096      2.559206     -0.826006
  H      -2.544808      2.890638      0.904038
  C      -5.894620      0.058831     -0.352526
  H      -6.026718     -0.202103     -1.399717
  C      -7.114120      0.873849      0.054714
  H      -7.168603      1.788426     -0.537248
  H      -8.006259      0.282435     -0.161931
  H      -7.116486      1.149175      1.103435
  C      -5.688744     -1.259144      0.397018
  H      -6.505347     -1.925056      0.102841
  H      -4.778378     -1.712085     -0.002953
  C      -5.606104     -1.207585      1.920483
  H      -5.465006     -2.215846      2.314542
  H      -4.775578     -0.594934      2.267794
  H      -6.516762     -0.805097      2.365043
20
Coordinates from ORCA-job 11 Relaxed Surface Scan Step 22
  C      -4.179129      1.570331      0.559021
  O      -4.718319      1.752936      1.597339
  O      -4.615842      0.760978     -0.387069
  C      -2.895786      2.236995      0.144371
  H      -2.143221      1.478184     -0.069527
  H      -3.059479      2.804564     -0.771509
  H      -2.551489      2.894405      0.937332
  C      -5.849194      0.026845     -0.348804
  H      -5.953469     -0.260994     -1.393254
  C      -7.051734      0.891318      0.003359
  H      -7.072229      1.778694     -0.631448
  H      -7.960838      0.319882     -0.193515
  H      -7.054190      1.212118      1.039980
  C      -5.721963     -1.282355      0.433029
  H      -6.584296     -1.888997      0.140337
  H      -4.842736     -1.804153      0.046786
  C      -5.654438     -1.230409      1.957432
  H      -5.643305     -2.248182      2.352881
  H      -4.761972     -0.721596      2.314431
  H      -6.515305     -0.718420      2.387868
20
Coordinates from ORCA-job 11 Relaxed Surface Scan Step 23
  C      -4.112469      1.494194      0.589930
  O      -4.577991      1.559497      1.676431
  O      -4.548102      0.698471     -0.369323
  C      -2.953820      2.328589      0.117258
  H      -2.191850      1.692620     -0.331571
  H      -3.304849      3.015741     -0.653365
  H      -2.540147      2.888349      0.951005
  C      -5.794963     -0.013066     -0.344095
  H      -5.871703     -0.327739     -1.383999
  C      -6.970655      0.907571     -0.047074
  H      -6.947066      1.770743     -0.714529
  H      -7.901113      0.368202     -0.231868
  H      -6.972307      1.265109      0.978668
  C      -5.763203     -1.310313      0.466980
  H      -6.677931     -1.838487      0.178848
  H      -4.932115     -1.912331      0.090828
  C      -5.700689     -1.254717      1.991308
  H      -5.809781     -2.266013      2.389058
  H      -4.758741     -0.849498      2.351337
  H      -6.499440     -0.644777      2.413214
20
Coordinates from ORCA-job 11 Relaxed Surface Scan Step 24
  C      -4.022984      1.417551      0.605690
  O      -4.364927      1.352220      1.736424
  O      -4.483636      0.647845     -0.365210
  C      -3.023537      2.413168      0.084895
  H      -2.275495      1.913493     -0.529163
  H      -3.545804      3.129491     -0.550516
  H      -2.551739      2.931513      0.914591
  C      -5.740049     -0.046406     -0.338390
  H      -5.803787     -0.384004     -1.372140
  C      -6.881606      0.925254     -0.073358
  H      -6.832941      1.759824     -0.774724
  H      -7.836597      0.418787     -0.219363
  H      -6.854267      1.321896      0.939411
  C      -5.789559     -1.331595      0.492173
  H      -6.729545     -1.800790      0.180726
  H      -4.987644     -1.985819      0.140895
  C      -5.773470     -1.278114      2.017616
  H      -5.978607     -2.277691      2.407295
  H      -4.816359     -0.947587      2.409343
  H      -6.536382     -0.606892      2.412846
