23
Coordinates from ORCA-job 22 Relaxed Surface Scan Step 1
  C      -2.594925      2.167138      1.639874
  H      -2.710110      1.093056      1.787264
  H      -3.324207      2.475105      0.885233
  H      -2.863708      2.658820      2.577455
  C      -1.177630      2.549149      1.205442
  H      -0.474498      2.263551      1.994378
  C      -0.741411      1.837816     -0.083193
  H      -1.453836      2.110710     -0.871532
  H       0.221997      2.258190     -0.384236
  C      -0.625239      0.299559     -0.051931
  H      -1.587032     -0.151354     -0.292584
  H       0.031793      0.000040     -0.874508
  C      -0.116245     -0.346298      1.241753
  H      -0.789791     -0.094041      2.069449
  H      -0.195263     -1.430892      1.123686
  C      -1.064833      4.066858      1.036060
  H      -0.045289      4.364009      0.781352
  H      -1.723522      4.425042      0.240050
  H      -1.342786      4.587813      1.954942
  C       1.327562     -0.007851      1.606000
  H       1.475748      1.061259      1.766315
  H       1.630995     -0.521543      2.520608
  H       2.011182     -0.317670      0.811585
23
Coordinates from ORCA-job 22 Relaxed Surface Scan Step 2
  C      -2.511183      2.183737      1.747404
  H      -2.631608      1.108108      1.873533
  H      -3.306679      2.524431      1.078687
  H      -2.677067      2.651025      2.720715
  C      -1.140124      2.562496      1.179954
  H      -0.363087      2.298569      1.902317
  C      -0.824323      1.841569     -0.140408
  H      -1.672540      2.019430     -0.812695
  H       0.031634      2.348332     -0.591889
  C      -0.536877      0.315717     -0.123473
  H      -1.398464     -0.214735     -0.523080
  H       0.258164      0.119390     -0.848832
  C      -0.151822     -0.367718      1.195838
  H      -0.912106     -0.170400      1.959508
  H      -0.196306     -1.446938      1.022998
  C      -1.059645      4.079232      0.980444
  H      -0.063277      4.386042      0.655506
  H      -1.773815      4.416025      0.223836
  H      -1.285089      4.610839      1.907627
  C       1.244957     -0.037431      1.718481
  H       1.379445      1.026110      1.918824
  H       1.452125     -0.574708      2.646451
  H       2.006639     -0.330655      0.991714
23
Coordinates from ORCA-job 22 Relaxed Surface Scan Step 3
  C      -2.426755      2.221705      1.855144
  H      -2.531243      1.150258      2.020442
  H      -3.280266      2.543074      1.251603
  H      -2.506642      2.714700      2.826687
  C      -1.112742      2.589210      1.158016
  H      -0.281774      2.355865      1.826294
  C      -0.912735      1.833655     -0.169965
  H      -1.864112      1.887922     -0.709370
  H      -0.206214      2.408570     -0.771690
  C      -0.433740      0.350526     -0.178033
  H      -1.159118     -0.229242     -0.748184
  H       0.484730      0.295291     -0.768876
  C      -0.172667     -0.407099      1.133959
  H      -1.000249     -0.273070      1.834179
  H      -0.176799     -1.473205      0.890002
  C      -1.068168      4.100503      0.908677
  H      -0.101588      4.409199      0.505204
  H      -1.838554      4.404154      0.194256
  H      -1.236341      4.657947      1.832846
  C       1.159934     -0.100408      1.816139
  H       1.255565      0.944615      2.110824
  H       1.283440     -0.706812      2.716105
  H       1.994992     -0.328891      1.149202
23
Coordinates from ORCA-job 22 Relaxed Surface Scan Step 4
  C      -2.572533      2.405267      1.901243
  H      -2.770389      1.360518      2.147941
  H      -3.412257      2.764894      1.299988
  H      -2.566122      2.972352      2.834943
  C      -1.250964      2.567497      1.144540
  H      -0.454456      2.238069      1.818159
  C      -1.204525      1.695026     -0.137168
  H      -2.193831      1.268155     -0.327408
  H      -1.003047      2.333946     -1.000718
  C      -0.155286      0.571855     -0.155405
  H      -0.345040     -0.037082     -1.043560
  H       0.831584      1.017135     -0.314203
  C      -0.102272     -0.343760      1.087972
  H      -0.875316     -0.056270      1.801734
  H      -0.334571     -1.370891      0.796309
  C      -0.991239      4.043029      0.829388
  H      -0.020914      4.179197      0.346391
  H      -1.755440      4.440704      0.155988
  H      -0.999113      4.650771      1.737125
  C       1.247605     -0.338585      1.802313
  H       1.512850      0.663187      2.148337
  H       1.238094     -0.999190      2.671927
  H       2.046133     -0.677356      1.137625
23
Coordinates from ORCA-job 22 Relaxed Surface Scan Step 5
  C      -2.671002      2.604454      1.926490
  H      -2.871789      1.611145      2.333393
  H      -3.502038      2.862808      1.263846
  H      -2.676058      3.312943      2.757867
  C      -1.337396      2.636691      1.177548
  H      -0.553957      2.380085      1.895066
  C      -1.287511      1.613635      0.015720
  H      -2.163806      0.960961      0.051958
  H      -1.359378      2.153216     -0.932146
  C      -0.026743      0.740888     -0.014282
  H       0.081375      0.319334     -1.016510
  H       0.852004      1.379406      0.122328
  C      -0.013128     -0.408769      1.015476
  H      -0.808691     -0.273336      1.753533
  H      -0.264560     -1.343977      0.506662
  C      -1.023480      4.051314      0.681263
  H      -0.057673      4.085805      0.171469
  H      -1.783294      4.397510     -0.024694
  H      -0.986176      4.764115      1.508324
  C       1.320068     -0.590034      1.734192
  H       1.587475      0.301134      2.307379
  H       1.286137     -1.434276      2.426009
  H       2.128572     -0.776583      1.022570
23
Coordinates from ORCA-job 22 Relaxed Surface Scan Step 6
  C      -3.094291      2.990651      1.548585
  H      -3.574477      2.149428      2.052864
  H      -3.610613      3.145851      0.597048
  H      -3.254892      3.880955      2.160587
  C      -1.602895      2.730130      1.328073
  H      -1.150099      2.551777      2.310311
  C      -1.386328      1.468239      0.477892
  H      -2.052520      0.684759      0.848993
  H      -1.721267      1.678865     -0.542387
  C       0.058295      0.926142      0.462130
  H       0.416707      0.838240     -0.567091
  H       0.732068      1.637970      0.946593
  C       0.209113     -0.431176      1.150180
  H      -0.166727     -0.360377      2.175990
  H      -0.431337     -1.161720      0.646023
  C      -0.926821      3.959944      0.716604
  H       0.141959      3.806623      0.560466
  H      -1.371106      4.204375     -0.252435
  H      -1.041821      4.832801      1.362996
  C       1.644093     -0.946293      1.171288
  H       2.303462     -0.261320      1.710050
  H       1.708405     -1.920570      1.659956
  H       2.040044     -1.056828      0.158745
23
Coordinates from ORCA-job 22 Relaxed Surface Scan Step 7
  C      -3.126921      3.060435      1.505017
  H      -3.622651      2.266310      2.067375
  H      -3.618822      3.134277      0.531094
  H      -3.299529      4.000119      2.034343
  C      -1.631638      2.780261      1.346039
  H      -1.200958      2.691533      2.351911
  C      -1.394422      1.440152      0.635034
  H      -2.027248      0.684349      1.108345
  H      -1.758715      1.515480     -0.394727
  C       0.069819      0.956881      0.641169
  H       0.505989      1.063756     -0.356268
  H       0.669487      1.595320      1.296464
  C       0.234447     -0.488418      1.109282
  H      -0.138217     -0.564443      2.136578
  H      -0.399568     -1.143912      0.503968
  C      -0.935390      3.943322      0.635404
  H       0.138253      3.778021      0.534262
  H      -1.345048      4.084869     -0.368816
  H      -1.073584      4.877711      1.183801
  C       1.674945     -0.985526      1.056312
  H       2.329298     -0.371582      1.680170
  H       1.751982     -2.015716      1.409746
  H       2.067444     -0.954732      0.036957
23
Coordinates from ORCA-job 22 Relaxed Surface Scan Step 8
  C      -3.145043      3.115684      1.466366
  H      -3.654853      2.371834      2.082385
  H      -3.616976      3.109435      0.479889
  H      -3.324923      4.096267      1.912506
  C      -1.647869      2.820495      1.361861
  H      -1.235003      2.825021      2.379558
  C      -1.401788      1.417684      0.789873
  H      -2.008700      0.705409      1.356019
  H      -1.786793      1.371211     -0.234818
  C       0.068039      0.969572      0.808871
  H       0.550077      1.238717     -0.135850
  H       0.609722      1.514555      1.588581
  C       0.247896     -0.526040      1.062429
  H      -0.129077     -0.751477      2.066043
  H      -0.373153     -1.095910      0.364033
  C      -0.933520      3.910988      0.560120
  H       0.144593      3.749334      0.520181
  H      -1.303398      3.942821     -0.468811
  H      -1.101400      4.895428      1.002384
  C       1.695471     -0.992810      0.951975
  H       2.338131     -0.460102      1.657349
  H       1.785155     -2.060155      1.163765
  H       2.092364     -0.819494     -0.051246
23
Coordinates from ORCA-job 22 Relaxed Surface Scan Step 9
  C      -3.145954      3.149827      1.455561
  H      -3.650871      2.454150      2.129195
  H      -3.619120      3.063145      0.473461
  H      -3.330626      4.161514      1.823305
  C      -1.646996      2.855319      1.372027
  H      -1.232532      2.952316      2.383739
  C      -1.399532      1.408270      0.923500
  H      -1.982599      0.745684      1.569883
  H      -1.806830      1.265392     -0.084047
  C       0.067886      0.969923      0.943691
  H       0.582616      1.363510      0.062210
  H       0.570329      1.411195      1.811233
  C       0.248917     -0.546021      0.995902
  H      -0.172439     -0.916378      1.936337
  H      -0.332746     -1.012404      0.194374
  C      -0.941786      3.878874      0.478895
  H       0.140009      3.739848      0.472181
  H      -1.294073      3.804500     -0.554074
  H      -1.138441      4.896766      0.822519
  C       1.704611     -0.988593      0.889055
  H       2.308736     -0.559305      1.692190
  H       1.794308     -2.074906      0.952071
  H       2.146086     -0.674159     -0.059746
23
Coordinates from ORCA-job 22 Relaxed Surface Scan Step 10
  C      -3.132903      3.169130      1.483777
  H      -3.606508      2.519874      2.223249
  H      -3.636155      3.004556      0.526858
  H      -3.319349      4.203169      1.781790
  C      -1.632939      2.885487      1.372674
  H      -1.189966      3.066973      2.359102
  C      -1.387355      1.410430      1.023561
  H      -1.949418      0.793357      1.731468
  H      -1.817210      1.198380      0.037635
  C       0.075149      0.965768      1.043608
  H       0.627822      1.460380      0.240107
  H       0.540843      1.292909      1.979836
  C       0.248030     -0.545925      0.902970
  H      -0.268045     -1.044933      1.729193
  H      -0.249135     -0.883080     -0.012165
  C      -0.973625      3.849949      0.383368
  H       0.110654      3.735895      0.359264
  H      -1.349248      3.687930     -0.631209
  H      -1.186218      4.886898      0.652321
  C       1.706748     -0.990874      0.878577
  H       2.226219     -0.695512      1.793523
  H       1.788381     -2.075823      0.787281
  H       2.243180     -0.546471      0.036673
23
Coordinates from ORCA-job 22 Relaxed Surface Scan Step 11
  C      -3.108365      3.183975      1.544631
  H      -3.525434      2.587588      2.358783
  H      -3.665626      2.940241      0.635711
  H      -3.293688      4.235520      1.774042
  C      -1.613373      2.911030      1.362522
  H      -1.115319      3.166027      2.304497
  C      -1.368735      1.418346      1.092984
  H      -1.924779      0.838163      1.836434
  H      -1.803787      1.159597      0.120639
  C       0.089632      0.962456      1.133122
  H       0.695198      1.551527      0.439658
  H       0.498470      1.155776      2.130922
  C       0.259699     -0.518203      0.794049
  H      -0.377462     -1.118521      1.450852
  H      -0.106959     -0.696523     -0.221696
  C      -1.032921      3.814259      0.270892
  H       0.048580      3.709426      0.179672
  H      -1.474123      3.583139     -0.702948
  H      -1.240280      4.864733      0.486069
  C       1.701050     -1.005587      0.902069
  H       2.085750     -0.883459      1.917481
  H       1.782399     -2.062902      0.642192
  H       2.359024     -0.448143      0.230885
23
Coordinates from ORCA-job 22 Relaxed Surface Scan Step 12
  C      -3.077736      3.209881      1.611032
  H      -3.429613      2.684359      2.501216
  H      -3.696466      2.887045      0.768944
  H      -3.255861      4.276747      1.762256
  C      -1.597591      2.926151      1.345015
  H      -1.036730      3.247238      2.228790
  C      -1.360870      1.420040      1.151278
  H      -1.927570      0.872649      1.911731
  H      -1.785555      1.123926      0.185341
  C       0.094623      0.953757      1.234837
  H       0.756468      1.633101      0.691882
  H       0.421049      0.994818      2.279448
  C       0.292759     -0.461424      0.691449
  H      -0.445360     -1.133280      1.140732
  H       0.075412     -0.460869     -0.381327
  C      -1.100152      3.752566      0.155644
  H      -0.035877      3.606883     -0.032465
  H      -1.639270      3.484333     -0.757330
  H      -1.256637      4.819279      0.330111
  C       1.694963     -1.015016      0.921314
  H       1.925323     -1.080952      1.987387
  H       1.800985     -2.015404      0.497028
  H       2.452659     -0.377361      0.459148
23
Coordinates from ORCA-job 22 Relaxed Surface Scan Step 13
  C      -3.057785      3.254947      1.632175
  H      -3.381099      2.813955      2.577399
  H      -3.710675      2.867623      0.844836
  H      -3.219814      4.333217      1.695261
  C      -1.591745      2.929551      1.338693
  H      -0.995390      3.313960      2.171729
  C      -1.375966      1.410347      1.252037
  H      -1.946637      0.920950      2.048123
  H      -1.811407      1.058872      0.310174
  C       0.078649      0.930622      1.358109
  H       0.773019      1.683199      0.975856
  H       0.337018      0.810757      2.415109
  C       0.323368     -0.385285      0.618822
  H      -0.455637     -1.106092      0.886925
  H       0.202422     -0.211065     -0.455164
  C      -1.126723      3.648213      0.068936
  H      -0.078949      3.446533     -0.158032
  H      -1.719710      3.334183     -0.794619
  H      -1.236527      4.730181      0.169545
  C       1.697485     -0.991635      0.880587
  H       1.830139     -1.230965      1.938452
  H       1.839702     -1.912836      0.312050
  H       2.495216     -0.300767      0.596459
23
Coordinates from ORCA-job 22 Relaxed Surface Scan Step 14
  C      -3.037900      3.323948      1.593853
  H      -3.382769      2.990758      2.574946
  H      -3.703415      2.889009      0.842827
  H      -3.155348      4.408980      1.550702
  C      -1.585612      2.912416      1.345103
  H      -0.976766      3.350388      2.142791
  C      -1.429297      1.385074      1.411842
  H      -1.997532      1.009031      2.267341
  H      -1.910693      0.956867      0.526173
  C       0.019070      0.867726      1.517987
  H       0.733037      1.672402      1.322411
  H       0.216075      0.556096      2.547966
  C       0.321894     -0.297986      0.576449
  H      -0.429121     -1.081947      0.716061
  H       0.204500      0.042693     -0.457355
  C      -1.085448      3.480546      0.014259
  H      -0.048201      3.207109     -0.185435
  H      -1.691610      3.111061     -0.817634
  H      -1.143236      4.571167      0.006901
  C       1.715870     -0.887395      0.760278
  H       1.848605     -1.283520      1.769996
  H       1.897426     -1.703336      0.057886
  H       2.489424     -0.132621      0.598113
23
Coordinates from ORCA-job 22 Relaxed Surface Scan Step 15
  C      -3.006258      3.374275      1.520483
  H      -3.393682      3.141965      2.514719
  H      -3.670193      2.906678      0.788001
  H      -3.071722      4.455773      1.382657
  C      -1.568022      2.880055      1.353691
  H      -0.960436      3.366504      2.126290
  C      -1.481753      1.363995      1.588790
  H      -2.010358      1.135848      2.517032
  H      -2.045749      0.856045      0.799053
  C      -0.051575      0.788189      1.662140
  H       0.678913      1.602335      1.651099
  H       0.090150      0.284979      2.622526
  C       0.289952     -0.198353      0.545096
  H      -0.414869     -1.035078      0.580687
  H       0.136624      0.283254     -0.425453
  C      -1.010311      3.293351     -0.010321
  H       0.027822      2.984216     -0.140687
  H      -1.594085      2.847907     -0.820818
  H      -1.045887      4.377836     -0.134646
  C       1.714730     -0.735860      0.624694
  H       1.888948     -1.258064      1.568706
  H       1.919013     -1.439085     -0.185134
  H       2.447702      0.071701      0.554854
23
Coordinates from ORCA-job 22 Relaxed Surface Scan Step 16
  C      -2.982628      3.382762      1.479575
  H      -3.374545      3.213489      2.484730
  H      -3.652098      2.882831      0.773992
  H      -3.033051      4.455280      1.279673
  C      -1.550607      2.860354      1.344001
  H      -0.934496      3.397809      2.074723
  C      -1.487423      1.368423      1.710176
  H      -1.946003      1.257141      2.695572
  H      -2.127561      0.803912      1.023049
  C      -0.082368      0.737519      1.742722
  H       0.669081      1.518823      1.896494
  H      -0.005639      0.083959      2.616143
  C       0.286202     -0.086712      0.507455
  H      -0.432368     -0.905788      0.403766
  H       0.180723      0.520184     -0.394860
  C      -0.992990      3.172625     -0.046282
  H       0.057821      2.895660     -0.137962
  H      -1.549014      2.640036     -0.822925
  H      -1.067193      4.240959     -0.260776
  C       1.697957     -0.661024      0.566514
  H       1.827806     -1.305057      1.439789
  H       1.920651     -1.257324     -0.320579
  H       2.446698      0.132606      0.628472
23
Coordinates from ORCA-job 22 Relaxed Surface Scan Step 17
  C      -2.964813      3.386668      1.512299
  H      -3.292583      3.260324      2.546225
  H      -3.677186      2.859002      0.871825
  H      -3.028478      4.449872      1.271208
  C      -1.543079      2.856175      1.307363
  H      -0.881994      3.426808      1.968409
  C      -1.465866      1.383782      1.747539
  H      -1.871686      1.336392      2.761880
  H      -2.147073      0.787873      1.129336
  C      -0.081442      0.714732      1.768395
  H       0.675325      1.439366      2.089461
  H      -0.093177     -0.055250      2.545480
  C       0.363499      0.041909      0.467046
  H      -0.408523     -0.667868      0.153986
  H       0.439569      0.772240     -0.339109
  C      -1.080834      3.114402     -0.128685
  H      -0.020659      2.901579     -0.262692
  H      -1.640244      2.503543     -0.842671
  H      -1.235736      4.161608     -0.397314
  C       1.696061     -0.689137      0.601812
  H       1.647232     -1.466567      1.368200
  H       1.982026     -1.167258     -0.337214
  H       2.498614     -0.001729      0.880684
23
Coordinates from ORCA-job 22 Relaxed Surface Scan Step 18
  C      -2.867091      3.455842      1.638909
  H      -3.020306      3.392745      2.718106
  H      -3.707000      2.949631      1.154445
  H      -2.910609      4.510221      1.357984
  C      -1.533420      2.825352      1.224589
  H      -0.739819      3.355526      1.763368
  C      -1.492088      1.350480      1.667685
  H      -1.938298      1.304125      2.664450
  H      -2.153941      0.761515      1.022143
  C      -0.125196      0.657182      1.768755
  H       0.573911      1.311717      2.300900
  H      -0.255929     -0.216862      2.414369
  C       0.521869      0.172800      0.469244
  H      -0.212158     -0.397923     -0.108366
  H       0.808291      1.018516     -0.156560
  C      -1.303334      3.039130     -0.274684
  H      -0.311606      2.725736     -0.594362
  H      -2.036054      2.483299     -0.866381
  H      -1.406647      4.095758     -0.531034
  C       1.754273     -0.693380      0.714321
  H       1.503129     -1.589287      1.287265
  H       2.204123     -1.016839     -0.226514
  H       2.516850     -0.146817      1.274830
23
Coordinates from ORCA-job 22 Relaxed Surface Scan Step 19
  C      -2.669505      3.545140      1.743365
  H      -2.632522      3.523211      2.834493
  H      -3.635311      3.134259      1.435606
  H      -2.639857      4.591038      1.429880
  C      -1.514475      2.747601      1.130057
  H      -0.583265      3.176797      1.517770
  C      -1.576248      1.269456      1.572505
  H      -2.100583      1.220276      2.529937
  H      -2.198771      0.705390      0.868942
  C      -0.238699      0.545975      1.770215
  H       0.361714      1.107329      2.494318
  H      -0.451458     -0.417437      2.244638
  C       0.606630      0.285207      0.523774
  H      -0.006224     -0.215168     -0.232906
  H       0.928032      1.231301      0.082847
  C      -1.517856      2.918493     -0.392697
  H      -0.711600      2.369024     -0.876162
  H      -2.460267      2.561348     -0.817101
  H      -1.411214      3.970552     -0.666671
  C       1.839905     -0.565066      0.815289
  H       1.562034     -1.545304      1.210135
  H       2.431751     -0.727159     -0.087806
  H       2.486741     -0.083798      1.553032
23
Coordinates from ORCA-job 22 Relaxed Surface Scan Step 20
  C      -2.511212      3.592969      1.769423
  H      -2.356460      3.586083      2.850485
  H      -3.537366      3.265930      1.579066
  H      -2.423833      4.626452      1.426702
  C      -1.504859      2.684415      1.058563
  H      -0.503042      3.043474      1.313945
  C      -1.627871      1.221889      1.545842
  H      -2.175462      1.205320      2.492153
  H      -2.246087      0.658227      0.839199
  C      -0.311086      0.471435      1.779329
  H       0.207691      0.917665      2.635962
  H      -0.557182     -0.550136      2.086632
  C       0.652465      0.406350      0.594061
  H       0.125690      0.031845     -0.288841
  H       0.991746      1.412533      0.335574
  C      -1.661770      2.808434     -0.460362
  H      -0.953981      2.177989     -0.998579
  H      -2.668226      2.513407     -0.769880
  H      -1.503770      3.838428     -0.788229
  C       1.871087     -0.470499      0.866774
  H       1.578779     -1.502012      1.077541
  H       2.547710     -0.486320      0.010023
  H       2.435989     -0.105412      1.728078
23
Coordinates from ORCA-job 22 Relaxed Surface Scan Step 21
  C      -2.241221      3.596209      1.828388
  H      -1.858481      3.510381      2.848049
  H      -3.315841      3.396424      1.859539
  H      -2.104583      4.631809      1.508627
  C      -1.526748      2.624117      0.886196
  H      -0.469124      2.893433      0.887230
  C      -1.658616      1.156481      1.368527
  H      -2.323004      1.120416      2.236794
  H      -2.159491      0.565987      0.596039
  C      -0.355353      0.443571      1.756885
  H       0.010337      0.828372      2.716131
  H      -0.598013     -0.607934      1.940100
  C       0.773076      0.508299      0.724117
  H       0.379586      0.268841     -0.268788
  H       1.155760      1.528176      0.649802
  C      -2.022274      2.796637     -0.552037
  H      -1.493181      2.130196     -1.236415
  H      -3.089561      2.570425     -0.628956
  H      -1.873519      3.820358     -0.903020
  C       1.933739     -0.426692      1.051835
  H       1.614717     -1.471628      1.053248
  H       2.740518     -0.327470      0.322911
  H       2.350229     -0.207941      2.038257
23
Coordinates from ORCA-job 22 Relaxed Surface Scan Step 22
  C      -1.452050      3.369556      1.723490
  H      -0.562412      3.128173      2.306573
  H      -2.321058      3.235879      2.374176
  H      -1.394618      4.428686      1.463113
  C      -1.572331      2.503768      0.467274
  H      -0.673509      2.656415     -0.139338
  C      -1.672558      1.004732      0.786470
  H      -2.597940      0.828593      1.346519
  H      -1.785916      0.465169     -0.159294
  C      -0.508077      0.376588      1.561407
  H      -0.518995      0.710785      2.603401
  H      -0.684321     -0.702818      1.603248
  C       0.879640      0.626572      0.967711
  H       0.859989      0.428501     -0.108833
  H       1.141010      1.682861      1.068442
  C      -2.767494      2.946030     -0.380740
  H      -2.838965      2.362254     -1.300970
  H      -3.706585      2.820594      0.165403
  H      -2.685567      3.998541     -0.660742
  C       1.970606     -0.216464      1.620970
  H       1.780325     -1.284146      1.488009
  H       2.950692      0.001715      1.192087
  H       2.029087     -0.023518      2.695084
23
Coordinates from ORCA-job 22 Relaxed Surface Scan Step 23
  C      -1.391762      3.401095      1.637681
  H      -0.536221      3.130996      2.257120
  H      -2.279364      3.382048      2.276453
  H      -1.246040      4.431885      1.307082
  C      -1.567487      2.460187      0.443367
  H      -0.680895      2.526443     -0.196406
  C      -1.718895      0.991223      0.861969
  H      -2.603650      0.906542      1.503965
  H      -1.940981      0.414778     -0.040878
  C      -0.526882      0.324421      1.574798
  H      -0.586966      0.485567      2.655005
  H      -0.637313     -0.756895      1.449599
  C       0.868395      0.735889      1.091997
  H       0.894418      0.795363      0.000337
  H       1.092884      1.747538      1.436755
  C      -2.764557      2.895618     -0.406119
  H      -2.870908      2.269277     -1.294376
  H      -3.696857      2.827608      0.161397
  H      -2.655583      3.929765     -0.740293
  C       1.966085     -0.204489      1.580038
  H       1.821609     -1.216982      1.195612
  H       2.952065      0.135674      1.257147
  H       1.977860     -0.265085      2.671207
23
Coordinates from ORCA-job 22 Relaxed Surface Scan Step 24
  C      -1.337745      3.450426      1.544964
  H      -0.489389      3.184381      2.174452
  H      -2.218173      3.512172      2.190836
  H      -1.151580      4.450130      1.146076
  C      -1.573433      2.442360      0.416790
  H      -0.714595      2.453348     -0.261372
  C      -1.752079      1.004018      0.928976
  H      -2.543770      1.019282      1.686281
  H      -2.144461      0.413525      0.097777
  C      -0.525844      0.250928      1.509652
  H      -0.621008      0.168695      2.595066
  H      -0.579646     -0.781429      1.153051
  C       0.875738      0.786340      1.193775
  H       0.977052      1.016597      0.130929
  H       1.038585      1.733437      1.710637
  C      -2.794468      2.859247     -0.409017
  H      -2.937185      2.201829     -1.269141
  H      -3.707734      2.823290      0.191490
  H      -2.685985      3.879077     -0.784786
  C       1.974887     -0.189648      1.603865
  H       1.894078     -1.131965      1.056685
  H       2.965519      0.224721      1.406198
  H       1.920188     -0.422293      2.670276
