24
Coordinates from ORCA-job 25 Relaxed Surface Scan Step 1
  C      67.413180    -14.755062     -2.395267
  H      67.863438    -13.828829     -2.018823
  C      66.974265    -14.471094     -3.838903
  H      67.889806    -14.354808     -4.422613
  C      66.091158    -13.218744     -4.062716
  H      66.337445    -12.792392     -5.043016
  H      65.057687    -13.567260     -4.115097
  C      66.163927    -12.070758     -3.055696
  H      65.361526    -11.364502     -3.278746
  H      66.018452    -12.395870     -2.027781
  H      67.114164    -11.534474     -3.104570
  C      66.249866    -15.163479     -1.486759
  H      65.435891    -14.438664     -1.494426
  H      65.838564    -16.120495     -1.806859
  H      66.590068    -15.268023     -0.454121
  O      66.322218    -15.618673     -4.316151
  C      66.246692    -15.778833     -5.690226
  H      65.808927    -16.755673     -5.888424
  H      65.618476    -15.020408     -6.166797
  H      67.238588    -15.743424     -6.154958
  C      68.506666    -15.827102     -2.371439
  H      69.377486    -15.520619     -2.955857
  H      68.844291    -16.013479     -1.349656
  H      68.137766    -16.767067     -2.782983
24
Coordinates from ORCA-job 25 Relaxed Surface Scan Step 2
  C      67.392073    -14.768134     -2.381442
  H      67.848622    -13.849245     -1.995745
  C      66.959849    -14.463240     -3.822839
  H      67.876639    -14.266435     -4.385881
  C      66.005514    -13.265946     -4.001849
  H      66.076389    -12.920441     -5.039864
  H      64.988336    -13.638498     -3.861439
  C      66.219665    -12.047043     -3.106737
  H      65.414233    -11.331526     -3.281651
  H      66.196405    -12.293799     -2.046588
  H      67.169000    -11.546748     -3.312299
  C      66.221212    -15.164226     -1.478292
  H      65.446057    -14.398106     -1.439942
  H      65.759563    -16.084653     -1.836197
  H      66.566846    -15.333060     -0.456117
  O      66.379606    -15.627667     -4.347740
  C      66.324573    -15.752223     -5.726682
  H      65.979697    -16.759017     -5.956086
  H      65.630578    -15.041943     -6.185294
  H      67.310713    -15.612441     -6.183725
  C      68.475258    -15.849993     -2.364068
  H      69.337310    -15.559002     -2.969173
  H      68.830696    -16.024328     -1.346210
  H      68.091711    -16.792016     -2.756025
24
Coordinates from ORCA-job 25 Relaxed Surface Scan Step 3
  C      67.363683    -14.782958     -2.366818
  H      67.813844    -13.871239     -1.960729
  C      66.921031    -14.448086     -3.799437
  H      67.828171    -14.181023     -4.354125
  C      65.918321    -13.292167     -3.927335
  H      65.822375    -13.041213     -4.988246
  H      64.939393    -13.655924     -3.607969
  C      66.265259    -12.011357     -3.173343
  H      65.496532    -11.257550     -3.350746
  H      66.318615    -12.165127     -2.095712
  H      67.222330    -11.595568     -3.498550
  C      66.199861    -15.197999     -1.463547
  H      65.454473    -14.408304     -1.359171
  H      65.699451    -16.080100     -1.864161
  H      66.561719    -15.439192     -0.461793
  O      66.387680    -15.615704     -4.364554
  C      66.406842    -15.734644     -5.745053
  H      66.092472    -16.746388     -5.995547
  H      65.725054    -15.035382     -6.237617
  H      67.412636    -15.575765     -6.149488
  C      68.452825    -15.858424     -2.378943
  H      69.298822    -15.560192     -3.002982
  H      68.832896    -16.034172     -1.370314
  H      68.066262    -16.801256     -2.765705
24
Coordinates from ORCA-job 25 Relaxed Surface Scan Step 4
  C      67.322990    -14.804176     -2.347781
  H      67.746019    -13.898825     -1.903215
  C      66.853043    -14.426224     -3.761614
  H      67.743177    -14.109240     -4.320969
  C      65.827960    -13.289558     -3.831913
  H      65.558069    -13.154673     -4.881999
  H      64.912201    -13.604733     -3.328976
  C      66.304954    -11.951113     -3.275201
  H      65.570223    -11.169448     -3.475745
  H      66.457829    -11.983757     -2.195592
  H      67.247062    -11.640380     -3.734507
  C      66.183840    -15.290504     -1.448155
  H      65.433838    -14.516651     -1.278742
  H      65.684528    -16.153482     -1.889781
  H      66.571421    -15.585932     -0.470939
  O      66.325925    -15.578958     -4.363604
  C      66.497560    -15.722931     -5.730888
  H      66.044422    -16.667849     -6.025643
  H      66.016798    -14.922459     -6.301388
  H      67.558198    -15.748065     -6.003770
  C      68.444232    -15.843919     -2.416511
  H      69.274316    -15.493543     -3.034866
  H      68.840628    -16.052353     -1.420588
  H      68.081315    -16.780959     -2.839499
24
Coordinates from ORCA-job 25 Relaxed Surface Scan Step 5
  C      67.265935    -14.845450     -2.288761
  H      67.586875    -13.939551     -1.768070
  C      66.817978    -14.421465     -3.697636
  H      67.713883    -14.086461     -4.238558
  C      65.805935    -13.270138     -3.741897
  H      65.356011    -13.266110     -4.735413
  H      64.984443    -13.469031     -3.052118
  C      66.408061    -11.893717     -3.467467
  H      65.680132    -11.104166     -3.663982
  H      66.740292    -11.785586     -2.433419
  H      67.269711    -11.704443     -4.112772
  C      66.141202    -15.486046     -1.470410
  H      65.300712    -14.807861     -1.319273
  H      65.765865    -16.382065     -1.964301
  H      66.509663    -15.770067     -0.482430
  O      66.299836    -15.558388     -4.335607
  C      66.475780    -15.654817     -5.706290
  H      66.010496    -16.581411     -6.037904
  H      66.009948    -14.826683     -6.249255
  H      67.537479    -15.684597     -5.974730
  C      68.473425    -15.782714     -2.371024
  H      69.306433    -15.314356     -2.900771
  H      68.826736    -16.051879     -1.373507
  H      68.213716    -16.702731     -2.896290
24
Coordinates from ORCA-job 25 Relaxed Surface Scan Step 6
  C      67.223319    -14.904288     -2.216280
  H      67.458803    -14.011253     -1.630142
  C      66.819621    -14.422128     -3.619033
  H      67.730374    -14.064450     -4.117902
  C      65.809810    -13.258674     -3.623152
  H      65.130013    -13.397243     -4.463765
  H      65.180626    -13.300616     -2.732854
  C      66.466495    -11.883658     -3.725858
  H      65.719336    -11.091556     -3.804676
  H      67.092181    -11.665866     -2.857066
  H      67.101394    -11.817329     -4.612797
  C      66.096960    -15.654878     -1.499845
  H      65.189861    -15.056108     -1.411236
  H      65.841763    -16.569177     -2.034488
  H      66.409037    -15.925657     -0.488952
  O      66.333960    -15.534415     -4.320668
  C      66.470588    -15.517827     -5.698741
  H      66.048902    -16.442899     -6.087817
  H      65.940820    -14.679965     -6.162989
  H      67.523199    -15.463018     -5.997798
  C      68.486377    -15.765979     -2.282199
  H      69.322932    -15.214874     -2.718316
  H      68.789868    -16.092345     -1.285309
  H      68.314308    -16.655530     -2.890003
24
Coordinates from ORCA-job 25 Relaxed Surface Scan Step 7
  C      67.226630    -14.971033     -2.144706
  H      67.467499    -14.104283     -1.519148
  C      66.883708    -14.412714     -3.533591
  H      67.814668    -14.017610     -3.960423
  C      65.847431    -13.265220     -3.503317
  H      64.985017    -13.561233     -4.102890
  H      65.468912    -13.132485     -2.488762
  C      66.390660    -11.927438     -3.999801
  H      65.627829    -11.148244     -3.947703
  H      67.240158    -11.596959     -3.396790
  H      66.729562    -11.991141     -5.036559
  C      66.053012    -15.715467     -1.502477
  H      65.161085    -15.092389     -1.424231
  H      65.792565    -16.597838     -2.086563
  H      66.315680    -16.039624     -0.493265
  O      66.462701    -15.487476     -4.328275
  C      66.539130    -15.319703     -5.700662
  H      66.217466    -16.247780     -6.169827
  H      65.891802    -14.513649     -6.060475
  H      67.563967    -15.104198     -6.023365
  C      68.467332    -15.864195     -2.204402
  H      69.329862    -15.321604     -2.598712
  H      68.733224    -16.229128     -1.210058
  H      68.290647    -16.728318     -2.845883
24
Coordinates from ORCA-job 25 Relaxed Surface Scan Step 8
  C      67.240142    -15.022835     -2.091768
  H      67.510563    -14.198784     -1.421894
  C      66.966017    -14.380986     -3.459908
  H      67.915510    -13.955940     -3.812090
  C      65.918618    -13.248621     -3.401662
  H      64.958853    -13.653913     -3.730492
  H      65.778250    -12.944820     -2.362626
  C      66.269482    -12.000526     -4.210549
  H      65.498765    -11.235873     -4.094143
  H      67.213390    -11.567250     -3.870899
  H      66.369835    -12.209591     -5.276738
  C      66.009571    -15.726681     -1.514122
  H      65.161008    -15.049327     -1.406915
  H      65.701149    -16.551003     -2.157219
  H      66.231872    -16.131815     -0.524646
  O      66.596741    -15.412557     -4.333608
  C      66.622621    -15.155034     -5.693884
  H      66.476130    -16.100206     -6.213946
  H      65.828521    -14.470162     -6.005249
  H      67.583828    -14.732808     -6.007961
  C      68.433270    -15.977523     -2.161107
  H      69.327833    -15.469221     -2.529032
  H      68.665276    -16.380672     -1.172981
  H      68.223303    -16.813582     -2.828445
24
Coordinates from ORCA-job 25 Relaxed Surface Scan Step 9
  C      67.226761    -15.016397     -2.137616
  H      67.615329    -14.263218     -1.439929
  C      66.891465    -14.249478     -3.428297
  H      67.832810    -13.830055     -3.799254
  C      65.898225    -13.109217     -3.199076
  H      64.900269    -13.547851     -3.135054
  H      66.111329    -12.643399     -2.233588
  C      65.899440    -12.028013     -4.274885
  H      65.242633    -11.205556     -3.981899
  H      66.898875    -11.609943     -4.420689
  H      65.551223    -12.412709     -5.234865
  C      66.001696    -15.676987     -1.501094
  H      65.244614    -14.947456     -1.211737
  H      65.542451    -16.382035     -2.195285
  H      66.287726    -16.224719     -0.600672
  O      66.377096    -15.127416     -4.399400
  C      67.065594    -15.248808     -5.597259
  H      66.521201    -15.954372     -6.222904
  H      67.132232    -14.296574     -6.132559
  H      68.080695    -15.631279     -5.452157
  C      68.332279    -16.046189     -2.377326
  H      69.227679    -15.583287     -2.799330
  H      68.621578    -16.530016     -1.442253
  H      67.997348    -16.824757     -3.064757
24
Coordinates from ORCA-job 25 Relaxed Surface Scan Step 10
  C      67.218399    -15.035341     -2.120991
  H      67.604907    -14.333111     -1.374452
  C      66.926486    -14.204113     -3.383311
  H      67.883107    -13.792190     -3.726635
  C      65.976073    -13.033006     -3.138751
  H      64.998990    -13.424787     -2.852617
  H      66.347714    -12.455129     -2.287720
  C      65.807569    -12.115422     -4.345317
  H      65.127538    -11.293206     -4.114634
  H      66.760498    -11.677495     -4.654006
  H      65.393503    -12.659237     -5.194772
  C      65.970080    -15.707322     -1.543122
  H      65.226671    -14.982038     -1.211457
  H      65.502853    -16.354245     -2.286511
  H      66.234556    -16.319344     -0.678232
  O      66.394778    -15.030508     -4.389455
  C      67.119071    -15.179037     -5.563317
  H      66.557398    -15.844139     -6.217402
  H      67.260248    -14.226055     -6.082399
  H      68.104022    -15.621625     -5.387584
  C      68.311511    -16.073741     -2.384775
  H      69.220631    -15.610416     -2.775651
  H      68.578515    -16.596340     -1.464106
  H      67.975428    -16.821882     -3.104667
24
Coordinates from ORCA-job 25 Relaxed Surface Scan Step 11
  C      67.199413    -15.053609     -2.101699
  H      67.534829    -14.385301     -1.304112
  C      66.974528    -14.183145     -3.352290
  H      67.954978    -13.814528     -3.679354
  C      66.098379    -12.950710     -3.102346
  H      65.187568    -13.231935     -2.573311
  H      66.642905    -12.284385     -2.426652
  C      65.722482    -12.201868     -4.377705
  H      65.049461    -11.370662     -4.163425
  H      66.602724    -11.794591     -4.881931
  H      65.208826    -12.863733     -5.073948
  C      65.924353    -15.754747     -1.624047
  H      65.145396    -15.048609     -1.336087
  H      65.522592    -16.398252     -2.406668
  H      66.139193    -16.373699     -0.750358
  O      66.421884    -14.982144     -4.368448
  C      67.129907    -15.111387     -5.554446
  H      66.563694    -15.773256     -6.207904
  H      67.258642    -14.152500     -6.065144
  H      68.119799    -15.549749     -5.395249
  C      68.311475    -16.078216     -2.340824
  H      69.242657    -15.596720     -2.648900
  H      68.519160    -16.644741     -1.430888
  H      68.025702    -16.791241     -3.116151
24
Coordinates from ORCA-job 25 Relaxed Surface Scan Step 12
  C      67.183587    -15.066446     -2.094945
  H      67.463957    -14.412255     -1.266004
  C      67.044145    -14.180034     -3.346423
  H      68.050984    -13.871660     -3.652347
  C      66.238984    -12.888867     -3.096089
  H      65.465740    -13.051095     -2.344316
  H      66.919407    -12.159646     -2.646526
  C      65.599939    -12.296065     -4.349386
  H      64.953509    -11.453972     -4.100393
  H      66.350115    -11.939156     -5.059083
  H      64.985444    -13.039411     -4.854543
  C      65.873120    -15.763128     -1.716518
  H      65.062583    -15.055630     -1.539843
  H      65.555662    -16.442847     -2.506542
  H      66.005890    -16.341986     -0.800000
  O      66.480217    -14.957463     -4.372001
  C      67.166441    -15.044017     -5.574187
  H      66.598000    -15.697289     -6.234261
  H      67.272864    -14.071128     -6.062615
  H      68.165311    -15.472019     -5.442682
  C      68.301976    -16.095966     -2.273184
  H      69.260345    -15.615427     -2.483910
  H      68.426056    -16.697183     -1.370200
  H      68.076271    -16.777038     -3.095885
24
Coordinates from ORCA-job 25 Relaxed Surface Scan Step 13
  C      67.178337    -15.068434     -2.103862
  H      67.467131    -14.423141     -1.268633
  C      67.133824    -14.175910     -3.356073
  H      68.166497    -13.911126     -3.605231
  C      66.355595    -12.853390     -3.128162
  H      65.785556    -12.908838     -2.199327
  H      67.084065    -12.054889     -2.963099
  C      65.409840    -12.450510     -4.256330
  H      64.865488    -11.542834     -3.990602
  H      65.943506    -12.252105     -5.187395
  H      64.679945    -13.233836     -4.454772
  C      65.815842    -15.686172     -1.777439
  H      65.038418    -14.931802     -1.650260
  H      65.498954    -16.359374     -2.573553
  H      65.871553    -16.257864     -0.848612
  O      66.605074    -14.931747     -4.414968
  C      67.313735    -14.953528     -5.606421
  H      66.760035    -15.571002     -6.311796
  H      67.429341    -13.955931     -6.040559
  H      68.310899    -15.386820     -5.476843
  C      68.242959    -16.158601     -2.241863
  H      69.234626    -15.731248     -2.408826
  H      68.295221    -16.769795     -1.338492
  H      68.014109    -16.820833     -3.078769
24
Coordinates from ORCA-job 25 Relaxed Surface Scan Step 14
  C      67.170108    -15.071715     -2.110803
  H      67.499534    -14.431770     -1.282909
  C      67.222553    -14.191335     -3.369347
  H      68.276715    -13.949431     -3.536102
  C      66.448758    -12.854598     -3.207171
  H      66.087881    -12.783559     -2.179830
  H      67.146760    -12.023070     -3.332769
  C      65.260981    -12.641832     -4.141576
  H      64.805576    -11.670001     -3.935483
  H      65.555553    -12.649834     -5.190735
  H      64.500094    -13.411025     -4.010354
  C      65.758995    -15.577903     -1.802616
  H      65.047315    -14.761989     -1.668937
  H      65.394306    -16.211368     -2.611636
  H      65.756783    -16.166544     -0.882820
  O      66.769594    -14.945899     -4.461334
  C      67.468572    -14.816304     -5.651211
  H      66.973561    -15.433408     -6.399161
  H      67.486044    -13.783929     -6.014312
  H      68.503865    -15.158659     -5.549387
  C      68.153319    -16.238816     -2.216964
  H      69.174210    -15.886606     -2.383776
  H      68.155028    -16.831356     -1.299712
  H      67.884441    -16.898779     -3.042939
24
Coordinates from ORCA-job 25 Relaxed Surface Scan Step 15
  C      67.150968    -15.078339     -2.115715
  H      67.501175    -14.450979     -1.286229
  C      67.281766    -14.206876     -3.374804
  H      68.347203    -13.968467     -3.465289
  C      66.514761    -12.863762     -3.292169
  H      66.332513    -12.644833     -2.238196
  H      67.161325    -12.061406     -3.656691
  C      65.187082    -12.783137     -4.042301
  H      64.763164    -11.783123     -3.918333
  H      65.311509    -12.957664     -5.110226
  H      64.460070    -13.508111     -3.677736
  C      65.713562    -15.511201     -1.819734
  H      65.056929    -14.659750     -1.637554
  H      65.303520    -16.083623     -2.652803
  H      65.682097    -16.141609     -0.928641
  O      66.907906    -14.968674     -4.489264
  C      67.567760    -14.699959     -5.678052
  H      67.153095    -15.350325     -6.446295
  H      67.440200    -13.662013     -6.001177
  H      68.641270    -14.901027     -5.595250
  C      68.077731    -16.292948     -2.199545
  H      69.112830    -15.992447     -2.379388
  H      68.056688    -16.861535     -1.267478
  H      67.775422    -16.957925     -3.009015
24
Coordinates from ORCA-job 25 Relaxed Surface Scan Step 16
  C      67.116501    -15.083160     -2.122157
  H      67.437655    -14.463575     -1.277625
  C      67.308770    -14.211204     -3.374531
  H      68.381273    -13.983634     -3.410013
  C      66.572452    -12.854123     -3.361133
  H      66.557943    -12.485304     -2.332167
  H      67.172718    -12.130485     -3.919446
  C      65.158356    -12.833055     -3.939929
  H      64.754637    -11.819337     -3.889913
  H      65.151826    -13.141046     -4.984917
  H      64.473809    -13.488793     -3.405840
  C      65.671828    -15.518267     -1.866062
  H      65.024881    -14.674257     -1.627739
  H      65.259311    -16.032232     -2.735214
  H      65.630817    -16.204786     -1.017895
  O      66.982614    -14.977126     -4.500620
  C      67.613070    -14.646274     -5.689538
  H      67.280794    -15.349525     -6.451145
  H      67.367070    -13.634711     -6.026856
  H      68.702313    -14.720622     -5.600183
  C      68.042862    -16.300919     -2.178360
  H      69.082054    -16.004533     -2.339774
  H      68.001138    -16.861387     -1.242150
  H      67.755855    -16.971379     -2.988680
24
Coordinates from ORCA-job 25 Relaxed Surface Scan Step 17
  C      67.045194    -15.092957     -2.143709
  H      67.213828    -14.444232     -1.278063
  C      67.306801    -14.227331     -3.390398
  H      68.389346    -14.046977     -3.400965
  C      66.661385    -12.829793     -3.419944
  H      66.869387    -12.340449     -2.464397
  H      67.201078    -12.240046     -4.165844
  C      65.171008    -12.744102     -3.745938
  H      64.891632    -11.706381     -3.938608
  H      64.928752    -13.327365     -4.634447
  H      64.540424    -13.100920     -2.934113
  C      65.627902    -15.665137     -2.044997
  H      64.872880    -14.893243     -1.912444
  H      65.377624    -16.234968     -2.939720
  H      65.557208    -16.335412     -1.185818
  O      66.974785    -14.988939     -4.518367
  C      67.578205    -14.652944     -5.719829
  H      67.313079    -15.415865     -6.449734
  H      67.242512    -13.684440     -6.102150
  H      68.669565    -14.625718     -5.628222
  C      68.071341    -16.229271     -2.079204
  H      69.094501    -15.846563     -2.087160
  H      67.945568    -16.815598     -1.166815
  H      67.956539    -16.901078     -2.931002
24
Coordinates from ORCA-job 25 Relaxed Surface Scan Step 18
  C      66.978706    -15.087218     -2.189511
  H      66.986152    -14.402653     -1.335071
  C      67.292275    -14.241286     -3.440690
  H      68.381962    -14.115716     -3.463837
  C      66.721255    -12.815260     -3.457937
  H      67.103838    -12.293834     -2.575814
  H      67.163898    -12.296232     -4.312156
  C      65.204445    -12.663137     -3.535048
  H      64.940745    -11.622878     -3.736017
  H      64.787236    -13.276021     -4.334842
  H      64.713949    -12.944233     -2.603333
  C      65.618266    -15.791478     -2.229795
  H      64.788304    -15.102776     -2.368871
  H      65.585970    -16.516480     -3.042004
  H      65.450644    -16.323954     -1.290954
  O      66.910752    -14.982205     -4.567422
  C      67.542338    -14.702258     -5.768625
  H      67.224613    -15.450564     -6.492656
  H      67.280681    -13.715848     -6.162393
  H      68.632403    -14.754832     -5.672342
  C      68.086734    -16.122159     -1.967308
  H      69.057212    -15.644922     -1.813566
  H      67.878758    -16.738754     -1.090524
  H      68.169412    -16.785032     -2.831168
24
Coordinates from ORCA-job 25 Relaxed Surface Scan Step 19
  C      66.929805    -15.074816     -2.233913
  H      66.833835    -14.372310     -1.400463
  C      67.278109    -14.242239     -3.487695
  H      68.370512    -14.149491     -3.513124
  C      66.739025    -12.804726     -3.497082
  H      67.247958    -12.251076     -2.701734
  H      67.066855    -12.332101     -4.426509
  C      65.228886    -12.632883     -3.364984
  H      64.953212    -11.581835     -3.466239
  H      64.699937    -13.194689     -4.135815
  H      64.863716    -12.965757     -2.393063
  C      65.615137    -15.854537     -2.349276
  H      64.770622    -15.223660     -2.616878
  H      65.695312    -16.632386     -3.107193
  H      65.385008    -16.331340     -1.393734
  O      66.871113    -14.965622     -4.617886
  C      67.558143    -14.751125     -5.801754
  H      67.179001    -15.457863     -6.537891
  H      67.415349    -13.740782     -6.196004
  H      68.633436    -14.921937     -5.679888
  C      68.072877    -16.039419     -1.902471
  H      69.001185    -15.504698     -1.689023
  H      67.833269    -16.648971     -1.028758
  H      68.258247    -16.715469     -2.740510
24
Coordinates from ORCA-job 25 Relaxed Surface Scan Step 20
  C      66.899066    -15.062747     -2.268565
  H      66.765326    -14.358353     -1.443209
  C      67.262632    -14.232013     -3.519281
  H      68.354480    -14.132050     -3.522065
  C      66.707456    -12.798062     -3.551843
  H      67.314878    -12.182404     -2.880869
  H      66.898059    -12.392478     -4.548410
  C      65.228272    -12.617540     -3.220782
  H      64.954873    -11.561587     -3.241119
  H      64.594265    -13.143073     -3.936029
  H      64.986157    -12.983060     -2.222746
  C      65.602392    -15.867244     -2.414534
  H      64.755867    -15.254891     -2.716812
  H      65.719857    -16.652544     -3.159673
  H      65.350785    -16.336412     -1.460575
  O      66.879967    -14.963283     -4.653947
  C      67.633907    -14.799779     -5.804464
  H      67.230163    -15.467002     -6.564023
  H      67.594266    -13.778038     -6.193845
  H      68.684812    -15.060580     -5.637489
  C      68.050503    -16.003363     -1.899976
  H      68.962829    -15.449979     -1.666064
  H      67.798963    -16.610995     -1.028283
  H      68.270772    -16.682254     -2.727280
24
Coordinates from ORCA-job 25 Relaxed Surface Scan Step 21
  C      66.881363    -15.059526     -2.289779
  H      66.755051    -14.360785     -1.459395
  C      67.251166    -14.226382     -3.534940
  H      68.338361    -14.085850     -3.497126
  C      66.645749    -12.808631     -3.619400
  H      67.318983    -12.120638     -3.101198
  H      66.690315    -12.496940     -4.665098
  C      65.221584    -12.598418     -3.106332
  H      64.975408    -11.535397     -3.092881
  H      64.486832    -13.105687     -3.732622
  H      65.096402    -12.955427     -2.084402
  C      65.578449    -15.852574     -2.442521
  H      64.736122    -15.230729     -2.737032
  H      65.690144    -16.630616     -3.196057
  H      65.323253    -16.330209     -1.493758
  O      66.939205    -14.993067     -4.668408
  C      67.736705    -14.826729     -5.788489
  H      67.376272    -15.507117     -6.558101
  H      67.695810    -13.808823     -6.188222
  H      68.784267    -15.067130     -5.575902
  C      68.026043    -16.011905     -1.930620
  H      68.942360    -15.467243     -1.691830
  H      67.770020    -16.624931     -1.064038
  H      68.240683    -16.684978     -2.763735
24
Coordinates from ORCA-job 25 Relaxed Surface Scan Step 22
  C      66.865124    -15.065995     -2.305079
  H      66.759675    -14.375795     -1.465015
  C      67.239403    -14.227465     -3.542732
  H      68.316653    -14.035383     -3.462398
  C      66.572642    -12.834977     -3.687914
  H      67.285763    -12.084454     -3.341067
  H      66.464155    -12.638916     -4.756037
  C      65.227126    -12.570076     -3.009723
  H      65.001702    -11.502246     -3.036828
  H      64.407985    -13.094949     -3.501552
  H      65.228375    -12.858605     -1.958839
  C      65.550053    -15.837633     -2.458955
  H      64.711762    -15.197053     -2.723390
  H      65.641791    -16.596639     -3.234452
  H      65.300839    -16.337541     -1.520213
  O      67.015379    -15.029358     -4.673038
  C      67.843292    -14.829677     -5.765145
  H      67.549628    -15.535450     -6.540250
  H      67.761312    -13.818738     -6.176505
  H      68.893915    -15.009630     -5.511624
  C      67.999581    -16.038544     -1.967341
  H      68.926165    -15.509183     -1.733687
  H      67.743355    -16.653779     -1.102390
  H      68.194872    -16.707648     -2.807709
24
Coordinates from ORCA-job 25 Relaxed Surface Scan Step 23
  C      66.825449    -15.090184     -2.324726
  H      66.706751    -14.407251     -1.479952
  C      67.220994    -14.242483     -3.548299
  H      68.284216    -14.009199     -3.423830
  C      66.501125    -12.878100     -3.755565
  H      67.244346    -12.086468     -3.632406
  H      66.196769    -12.833151     -4.802225
  C      65.292209    -12.506652     -2.895399
  H      64.994014    -11.480798     -3.120657
  H      64.429558    -13.142147     -3.088161
  H      65.510455    -12.548351     -1.827644
  C      65.517977    -15.866795     -2.512448
  H      64.679493    -15.226222     -2.776904
  H      65.626658    -16.609734     -3.301369
  H      65.256554    -16.386763     -1.588131
  O      67.092267    -15.063615     -4.679841
  C      67.933851    -14.799425     -5.747605
  H      67.725696    -15.531007     -6.526434
  H      67.778537    -13.800654     -6.167653
  H      68.987575    -14.887967     -5.460421
  C      67.958096    -16.060408     -1.973284
  H      68.880237    -15.528348     -1.728297
  H      67.692132    -16.674486     -1.110425
  H      68.165590    -16.729524     -2.810210
24
Coordinates from ORCA-job 25 Relaxed Surface Scan Step 24
  C      66.776521    -15.119156     -2.346230
  H      66.636433    -14.434654     -1.502436
  C      67.212216    -14.264872     -3.547660
  H      68.253704    -13.988691     -3.369833
  C      66.421609    -12.953354     -3.815420
  H      67.143419    -12.144151     -3.975310
  H      65.888556    -13.093745     -4.757090
  C      65.421634    -12.442125     -2.776963
  H      64.863928    -11.612234     -3.216651
  H      64.691378    -13.191434     -2.480437
  H      65.911782    -12.076370     -1.872520
  C      65.476361    -15.890408     -2.596920
  H      64.665869    -15.252454     -2.946586
  H      65.633369    -16.658391     -3.353371
  H      65.142363    -16.379497     -1.679131
  O      67.194655    -15.094836     -4.680099
  C      68.015629    -14.732757     -5.735473
  H      67.924734    -15.495602     -6.506765
  H      67.735261    -13.769661     -6.173020
  H      69.065578    -14.675039     -5.426781
  C      67.893513    -16.092360     -1.956376
  H      68.805714    -15.561429     -1.674229
  H      67.593672    -16.708225     -1.105793
  H      68.132651    -16.758286     -2.786791
