24
Coordinates from ORCA-job 26 Relaxed Surface Scan Step 1
  C      67.188497    -14.849220     -2.256363
  H      67.276030    -13.902422     -1.713159
  C      66.832968    -14.476521     -3.708323
  H      67.777727    -14.258615     -4.225856
  C      65.918964    -13.248214     -3.808305
  H      65.502587    -13.201791     -4.815256
  H      65.066638    -13.382814     -3.137898
  C      66.610982    -11.917909     -3.519872
  H      65.913529    -11.088154     -3.647094
  H      67.000124    -11.860127     -2.502390
  H      67.447286    -11.751514     -4.203468
  C      66.109327    -15.690210     -1.568851
  H      65.120155    -15.239160     -1.630824
  H      66.044990    -16.678872     -2.021079
  H      66.350119    -15.812507     -0.510547
  O      66.254368    -15.596090     -4.320450
  C      66.230887    -15.629688     -5.706259
  H      65.887882    -16.618280     -6.006569
  H      65.551259    -14.890691     -6.138018
  H      67.228159    -15.467070     -6.130246
  C      68.538553    -15.567167     -2.190180
  H      69.346997    -14.936578     -2.567197
  H      68.787120    -15.846216     -1.164128
  H      68.515400    -16.479901     -2.789553
24
Coordinates from ORCA-job 26 Relaxed Surface Scan Step 2
  C      67.106300    -14.866482     -2.239824
  H      67.004424    -13.933788     -1.675639
  C      66.792990    -14.512791     -3.713774
  H      67.753610    -14.385099     -4.230901
  C      65.981335    -13.217170     -3.840060
  H      65.575855    -13.144918     -4.849756
  H      65.118015    -13.278630     -3.171360
  C      66.779335    -11.946017     -3.559182
  H      66.149702    -11.062706     -3.678915
  H      67.183899    -11.920958     -2.546248
  H      67.618653    -11.847534     -4.252130
  C      66.130585    -15.878939     -1.634575
  H      65.090269    -15.584997     -1.758407
  H      66.246837    -16.857026     -2.099266
  H      66.323367    -15.981993     -0.564345
  O      66.130570    -15.591575     -4.313453
  C      66.070261    -15.614734     -5.698950
  H      65.709449    -16.597837     -5.996667
  H      65.386621    -14.866593     -6.107354
  H      67.057483    -15.459369     -6.148379
  C      68.545874    -15.362075     -2.080762
  H      69.267901    -14.607805     -2.402020
  H      68.765731    -15.609535     -1.040140
  H      68.711480    -16.261162     -2.679779
24
Coordinates from ORCA-job 26 Relaxed Surface Scan Step 3
  C      66.919803    -14.894193     -2.270397
  H      66.466578    -14.154502     -1.604198
  C      66.596414    -14.483268     -3.735135
  H      67.510743    -14.594571     -4.329631
  C      66.106440    -13.039492     -3.875381
  H      65.823469    -12.887618     -4.920124
  H      65.184764    -12.942939     -3.295399
  C      67.097497    -11.953584     -3.468854
  H      66.678300    -10.965227     -3.664983
  H      67.344444    -11.995665     -2.407120
  H      68.030879    -12.031045     -4.032118
  C      66.326292    -16.251106     -1.886588
  H      65.242861    -16.253304     -1.990389
  H      66.719710    -17.052948     -2.514579
  H      66.575958    -16.483764     -0.848661
  O      65.613128    -15.329297     -4.271876
  C      65.811385    -15.788412     -5.563371
  H      64.952492    -16.398955     -5.836678
  H      65.893689    -14.970848     -6.287517
  H      66.713173    -16.405538     -5.640980
  C      68.430170    -14.876893     -2.011020
  H      68.883718    -13.921696     -2.279173
  H      68.645873    -15.059381     -0.956357
  H      68.932768    -15.655488     -2.591354
24
Coordinates from ORCA-job 26 Relaxed Surface Scan Step 4
  C      66.864966    -14.927524     -2.244430
  H      66.254070    -14.269989     -1.616784
  C      66.605121    -14.542472     -3.721911
  H      67.519639    -14.757697     -4.290707
  C      66.209917    -13.074297     -3.932326
  H      65.972022    -12.950284     -4.991088
  H      65.272267    -12.913648     -3.394151
  C      67.220687    -12.000827     -3.540584
  H      66.859625    -11.019558     -3.853675
  H      67.382170    -11.955483     -2.463401
  H      68.189446    -12.160601     -4.020153
  C      66.452903    -16.368243     -1.930836
  H      65.387215    -16.524106     -2.076431
  H      66.982349    -17.079022     -2.570183
  H      66.698800    -16.606323     -0.893411
  O      65.566762    -15.337915     -4.231810
  C      65.637895    -15.696316     -5.567893
  H      64.767060    -16.308847     -5.794808
  H      65.628911    -14.830645     -6.237349
  H      66.538287    -16.283018     -5.780847
  C      68.336106    -14.725378     -1.860177
  H      68.703834    -13.726343     -2.086448
  H      68.478445    -14.892672     -0.790846
  H      68.972051    -15.438526     -2.391638
24
Coordinates from ORCA-job 26 Relaxed Surface Scan Step 5
  C      66.684997    -15.051714     -2.175594
  H      65.777859    -14.764850     -1.635151
  C      66.523296    -14.532378     -3.614233
  H      67.428578    -14.796598     -4.176411
  C      66.309265    -13.010376     -3.735161
  H      65.579414    -12.851639     -4.530343
  H      65.837380    -12.633975     -2.823653
  C      67.559459    -12.193955     -4.058059
  H      67.316343    -11.132282     -4.132922
  H      68.337849    -12.298957     -3.302379
  H      67.989136    -12.499967     -5.015182
  C      66.766087    -16.579558     -2.156301
  H      65.879817    -17.017567     -2.612960
  H      67.645813    -16.936146     -2.701102
  H      66.843367    -16.948625     -1.131368
  O      65.427459    -15.211324     -4.171782
  C      65.527625    -15.582757     -5.502262
  H      64.602863    -16.085253     -5.780583
  H      65.660759    -14.720935     -6.165642
  H      66.361772    -16.272936     -5.668171
  C      67.878138    -14.431210     -1.445924
  H      67.776976    -13.352212     -1.328914
  H      67.970037    -14.856889     -0.445211
  H      68.816258    -14.627629     -1.972579
24
Coordinates from ORCA-job 26 Relaxed Surface Scan Step 6
  C      66.669635    -15.091901     -2.173711
  H      65.691305    -14.905281     -1.718174
  C      66.538146    -14.608058     -3.627121
  H      67.429441    -14.933919     -4.182814
  C      66.378081    -13.082141     -3.781566
  H      65.660178    -12.901871     -4.581859
  H      65.913880    -12.672666     -2.881148
  C      67.661359    -12.320898     -4.107984
  H      67.462061    -11.251869     -4.204437
  H      68.427183    -12.443464     -3.342124
  H      68.087227    -12.662354     -5.054735
  C      66.939205    -16.597347     -2.116000
  H      66.185430    -17.159356     -2.661440
  H      67.917803    -16.834936     -2.543992
  H      66.940361    -16.948466     -1.081958
  O      65.418884    -15.269077     -4.156656
  C      65.376317    -15.429770     -5.531643
  H      64.455365    -15.955402     -5.777652
  H      65.377218    -14.476215     -6.068418
  H      66.222481    -16.024320     -5.893912
  C      67.729807    -14.342259     -1.363556
  H      67.521679    -13.275933     -1.281078
  H      67.772524    -14.742195     -0.348994
  H      68.724979    -14.460033     -1.800912
24
Coordinates from ORCA-job 26 Relaxed Surface Scan Step 7
  C      66.664596    -15.127087     -2.203604
  H      65.639340    -15.100732     -1.820920
  C      66.525666    -14.650333     -3.666146
  H      67.355990    -15.064196     -4.257594
  C      66.475375    -13.124520     -3.861456
  H      65.855105    -12.917466     -4.732531
  H      65.949487    -12.669001     -3.019619
  C      67.826206    -12.446954     -4.083104
  H      67.694914    -11.374046     -4.236199
  H      68.508904    -12.575406     -3.244416
  H      68.319619    -12.846532     -4.972634
  C      67.163970    -16.572916     -2.139602
  H      66.597757    -17.234022     -2.789205
  H      68.214873    -16.631529     -2.437779
  H      67.090099    -16.963277     -1.122446
  O      65.336419    -15.239835     -4.129510
  C      65.158853    -15.331182     -5.500482
  H      64.240339    -15.887949     -5.677838
  H      65.061206    -14.356568     -5.985375
  H      65.985548    -15.868349     -5.979358
  C      67.538362    -14.259739     -1.293163
  H      67.198876    -13.226543     -1.233768
  H      67.516851    -14.664511     -0.279629
  H      68.582190    -14.257038     -1.615508
24
Coordinates from ORCA-job 26 Relaxed Surface Scan Step 8
  C      66.662431    -15.167749     -2.229449
  H      65.634342    -15.338586     -1.901963
  C      66.494617    -14.674275     -3.693972
  H      67.253283    -15.163724     -4.321961
  C      66.575782    -13.159218     -3.933295
  H      66.052457    -12.942492     -4.864027
  H      66.016634    -12.633955     -3.156918
  C      67.988308    -12.592615     -4.063599
  H      67.950530    -11.522905     -4.277818
  H      68.585597    -12.722273     -3.162906
  H      68.524585    -13.071762     -4.886564
  C      67.401508    -16.508029     -2.185739
  H      66.979352    -17.230951     -2.880145
  H      68.456395    -16.378262     -2.444641
  H      67.359631    -16.944818     -1.185817
  O      65.238467    -15.167250     -4.094290
  C      64.966263    -15.234493     -5.450829
  H      64.050157    -15.809827     -5.574228
  H      64.810086    -14.253191     -5.905860
  H      65.767609    -15.742237     -5.999857
  C      67.308550    -14.207745     -1.225377
  H      66.825193    -13.232005     -1.197423
  H      67.227402    -14.634849     -0.223922
  H      68.371368    -14.056522     -1.421284
24
Coordinates from ORCA-job 26 Relaxed Surface Scan Step 9
  C      66.647886    -15.204919     -2.303770
  H      65.708308    -15.703204     -2.071191
  C      66.402333    -14.586899     -3.713071
  H      67.022413    -15.139236     -4.424860
  C      66.736694    -13.105318     -3.917083
  H      66.241819    -12.794612     -4.839846
  H      66.288012    -12.505202     -3.124857
  C      68.227760    -12.800753     -4.046826
  H      68.390407    -11.732677     -4.201865
  H      68.796155    -13.091594     -3.163293
  H      68.661008    -13.325509     -4.902019
  C      67.724969    -16.292816     -2.362448
  H      67.447488    -17.064953     -3.086974
  H      68.698243    -15.888925     -2.655005
  H      67.846962    -16.778669     -1.392138
  O      65.050357    -14.808490     -4.037633
  C      64.781115    -15.256370     -5.321132
  H      63.701738    -15.357453     -5.420981
  H      65.130175    -14.557994     -6.089628
  H      65.239558    -16.232448     -5.514120
  C      66.895689    -14.222210     -1.155942
  H      66.087946    -13.494753     -1.069449
  H      66.939489    -14.769453     -0.212092
  H      67.834024    -13.675273     -1.255663
24
Coordinates from ORCA-job 26 Relaxed Surface Scan Step 10
  C      66.646851    -15.220338     -2.583782
  H      65.813325    -15.923189     -2.559389
  C      66.453652    -14.429172     -3.902107
  H      66.943092    -14.992039     -4.704470
  C      67.001754    -13.002445     -3.960491
  H      66.658719    -12.592526     -4.912211
  H      66.521513    -12.399350     -3.188305
  C      68.518664    -12.857835     -3.877673
  H      68.806042    -11.820137     -4.055878
  H      68.916209    -13.139638     -2.902755
  H      69.020954    -13.469801     -4.630971
  C      67.919745    -16.072359     -2.580625
  H      67.909060    -16.783290     -3.412788
  H      68.828621    -15.474583     -2.662598
  H      67.991161    -16.651012     -1.657226
  O      65.082855    -14.329848     -4.197307
  C      64.522932    -15.385774     -4.900624
  H      63.463468    -15.174243     -5.034123
  H      64.981343    -15.497967     -5.889395
  H      64.615709    -16.339809     -4.372190
  C      66.503293    -14.367184     -1.321807
  H      65.577264    -13.791114     -1.347966
  H      66.471408    -15.005817     -0.436504
  H      67.332914    -13.670260     -1.190702
24
Coordinates from ORCA-job 26 Relaxed Surface Scan Step 11
  C      66.680716    -15.259154     -2.602859
  H      65.928140    -16.050333     -2.642708
  C      66.464826    -14.460378     -3.908383
  H      66.889907    -15.047404     -4.731786
  C      67.048321    -13.047961     -3.993852
  H      66.701759    -12.646632     -4.948119
  H      66.580716    -12.427357     -3.227487
  C      68.566633    -12.914084     -3.923693
  H      68.861132    -11.894721     -4.179338
  H      68.961126    -13.122120     -2.929528
  H      69.065234    -13.584522     -4.628012
  C      68.033567    -15.973292     -2.524712
  H      68.206940    -16.589558     -3.410667
  H      68.872533    -15.284919     -2.428263
  H      68.057338    -16.636014     -1.657038
  O      65.084230    -14.304937     -4.128976
  C      64.443519    -15.297592     -4.852321
  H      63.389695    -15.033336     -4.920834
  H      64.846203    -15.379794     -5.868011
  H      64.517867    -16.280349     -4.375890
  C      66.383953    -14.441593     -1.344754
  H      65.416212    -13.945760     -1.426079
  H      66.356503    -15.089680     -0.466088
  H      67.143475    -13.678240     -1.162484
24
Coordinates from ORCA-job 26 Relaxed Surface Scan Step 12
  C      66.696972    -15.286968     -2.607889
  H      66.038195    -16.153098     -2.724792
  C      66.480143    -14.471996     -3.902204
  H      66.863712    -15.074271     -4.737281
  C      67.103272    -13.076264     -3.998882
  H      66.698040    -12.645686     -4.916294
  H      66.713518    -12.457485     -3.188374
  C      68.626145    -12.983780     -4.046624
  H      68.925652    -11.975203     -4.337028
  H      69.093347    -13.191662     -3.085352
  H      69.050372    -13.673773     -4.780166
  C      68.111372    -15.851204     -2.438754
  H      68.493054    -16.279903     -3.367465
  H      68.823646    -15.097701     -2.105069
  H      68.108619    -16.643886     -1.687853
  O      65.099654    -14.269826     -4.083813
  C      64.400025    -15.220442     -4.806865
  H      63.357411    -14.909536     -4.844667
  H      64.773069    -15.302066     -5.833940
  H      64.442304    -16.214027     -4.349436
  C      66.237594    -14.541994     -1.353535
  H      65.229411    -14.149138     -1.481096
  H      66.234611    -15.212447     -0.491120
  H      66.900410    -13.707377     -1.113387
24
Coordinates from ORCA-job 26 Relaxed Surface Scan Step 13
  C      66.681067    -15.318843     -2.633366
  H      66.224275    -16.277598     -2.900282
  C      66.568616    -14.430136     -3.892975
  H      66.992393    -15.001217     -4.731620
  C      67.290868    -13.074318     -3.821778
  H      66.654563    -12.364867     -4.349636
  H      67.343883    -12.721972     -2.789915
  C      68.682631    -13.045610     -4.450471
  H      69.105292    -12.040727     -4.391996
  H      69.381665    -13.722627     -3.959269
  H      68.640664    -13.322694     -5.506518
  C      68.130440    -15.624285     -2.249528
  H      68.703851    -16.007101     -3.095580
  H      68.645085    -14.739918     -1.869306
  H      68.160499    -16.380511     -1.462889
  O      65.225458    -14.149482     -4.191161
  C      64.438839    -15.178665     -4.680646
  H      63.514026    -14.740503     -5.052434
  H      64.929212    -15.702735     -5.508877
  H      64.180385    -15.916406     -3.915483
  C      65.899968    -14.761769     -1.440801
  H      64.861078    -14.564833     -1.700823
  H      65.914384    -15.474467     -0.613108
  H      66.331404    -13.828448     -1.073423
24
Coordinates from ORCA-job 26 Relaxed Surface Scan Step 14
  C      66.716333    -15.356098     -2.668505
  H      66.392742    -16.358883     -2.980160
  C      66.584359    -14.448547     -3.920463
  H      66.943268    -15.032477     -4.785774
  C      67.349012    -13.114503     -3.870974
  H      66.733793    -12.404052     -4.421576
  H      67.392497    -12.740785     -2.845604
  C      68.747012    -13.116887     -4.486393
  H      69.160023    -12.106300     -4.482238
  H      69.449518    -13.755406     -3.952565
  H      68.716342    -13.452778     -5.525759
  C      68.158315    -15.492707     -2.171553
  H      68.860532    -15.696095     -2.976352
  H      68.494474    -14.582486     -1.671425
  H      68.232863    -16.307563     -1.449504
  O      65.243917    -14.097215     -4.145793
  C      64.373906    -15.071655     -4.595576
  H      63.430811    -14.586134     -4.841026
  H      64.752033    -15.565040     -5.498648
  H      64.173659    -15.844088     -3.847411
  C      65.816963    -14.901922     -1.514726
  H      64.763687    -14.898662     -1.785996
  H      65.942254    -15.567228     -0.657427
  H      66.072234    -13.892220     -1.186438
24
Coordinates from ORCA-job 26 Relaxed Surface Scan Step 15
  C      66.771689    -15.377627     -2.625546
  H      66.634303    -16.410646     -2.974438
  C      66.603989    -14.460684     -3.881002
  H      66.880579    -15.062806     -4.764618
  C      67.433359    -13.162216     -3.895042
  H      66.795619    -12.410647     -4.357884
  H      67.618324    -12.812006     -2.878196
  C      68.743622    -13.224281     -4.678110
  H      69.235828    -12.249829     -4.671755
  H      69.451668    -13.947600     -4.274254
  H      68.559794    -13.491326     -5.721612
  C      68.160683    -15.308441     -1.977020
  H      68.970812    -15.284100     -2.697912
  H      68.261158    -14.415962     -1.357123
  H      68.315007    -16.171951     -1.327990
  O      65.268500    -14.049524     -4.022360
  C      64.368608    -14.926625     -4.593058
  H      63.398989    -14.432732     -4.629549
  H      64.658369    -15.192207     -5.616487
  H      64.257361    -15.855067     -4.024495
  C      65.723575    -15.091177     -1.544284
  H      64.707251    -15.291398     -1.874451
  H      65.917336    -15.713601     -0.667674
  H      65.764123    -14.047278     -1.227022
24
Coordinates from ORCA-job 26 Relaxed Surface Scan Step 16
  C      66.894343    -15.371790     -2.558209
  H      67.045095    -16.381584     -2.951887
  C      66.567084    -14.458967     -3.798210
  H      66.686132    -15.079081     -4.692712
  C      67.436061    -13.208637     -4.012057
  H      66.818807    -12.516751     -4.585739
  H      67.635622    -12.710599     -3.062325
  C      68.734141    -13.437699     -4.784839
  H      69.273527    -12.496841     -4.909544
  H      69.410974    -14.137129     -4.295564
  H      68.525691    -13.829381     -5.783611
  C      68.173010    -15.019038     -1.787477
  H      69.058719    -14.995025     -2.418630
  H      68.091748    -14.054192     -1.284039
  H      68.349655    -15.771785     -1.017166
  O      65.230606    -14.022980     -3.746141
  C      64.330720    -14.634977     -4.601830
  H      63.348159    -14.202175     -4.420800
  H      64.591500    -14.469010     -5.653065
  H      64.266155    -15.715630     -4.434604
  C      65.727823    -15.451150     -1.566748
  H      64.817618    -15.832992     -2.025228
  H      65.990898    -16.120590     -0.744801
  H      65.496457    -14.471730     -1.146660
24
Coordinates from ORCA-job 26 Relaxed Surface Scan Step 17
  C      66.965059    -15.343572     -2.541288
  H      67.310111    -16.291250     -2.961045
  C      66.556164    -14.446004     -3.763843
  H      66.590336    -15.083709     -4.646487
  C      67.451877    -13.243666     -4.090248
  H      66.852751    -12.585252     -4.721518
  H      67.671870    -12.671353     -3.188416
  C      68.737299    -13.588314     -4.840702
  H      69.321381    -12.687078     -5.035848
  H      69.378592    -14.280082     -4.294608
  H      68.511420    -14.047088     -5.806557
  C      68.112711    -14.812555     -1.673354
  H      69.042062    -14.699792     -2.233967
  H      67.869393    -13.852885     -1.213497
  H      68.312970    -15.518398     -0.865059
  O      65.237049    -13.980041     -3.619726
  C      64.307954    -14.461264     -4.531812
  H      63.339369    -14.032335     -4.280283
  H      64.556635    -14.170991     -5.558528
  H      64.222167    -15.552104     -4.496592
  C      65.764867    -15.689669     -1.653240
  H      64.957032    -16.152859     -2.219021
  H      66.072679    -16.396251     -0.879459
  H      65.358800    -14.803217     -1.166788
24
Coordinates from ORCA-job 26 Relaxed Surface Scan Step 18
  C      67.012402    -15.313427     -2.556972
  H      67.504880    -16.188621     -2.986136
  C      66.557390    -14.428046     -3.761351
  H      66.517562    -15.076551     -4.634334
  C      67.481751    -13.274171     -4.161553
  H      66.909376    -12.648000     -4.848991
  H      67.701044    -12.644723     -3.298342
  C      68.769885    -13.708597     -4.857941
  H      69.378562    -12.840841     -5.118365
  H      69.384346    -14.364880     -4.240829
  H      68.550304    -14.244165     -5.784949
  C      68.018269    -14.658221     -1.603611
  H      68.966856    -14.435011     -2.098038
  H      67.627520    -13.734425     -1.171888
  H      68.239952    -15.337244     -0.777905
  O      65.268243    -13.911254     -3.542199
  C      64.275258    -14.341057     -4.414452
  H      63.339758    -13.873904     -4.111284
  H      64.487330    -14.046825     -5.448157
  H      64.144476    -15.426855     -4.387461
  C      65.816935    -15.862699     -1.771794
  H      65.109742    -16.381352     -2.420322
  H      66.162833    -16.580765     -1.025305
  H      65.275872    -15.068099     -1.259706
24
Coordinates from ORCA-job 26 Relaxed Surface Scan Step 19
  C      67.047840    -15.288637     -2.583376
  H      67.664704    -16.084471     -3.006321
  C      66.565125    -14.413800     -3.772816
  H      66.451985    -15.070137     -4.634831
  C      67.516384    -13.307078     -4.232387
  H      66.969889    -12.717805     -4.972229
  H      67.726006    -12.626508     -3.406131
  C      68.813273    -13.808657     -4.862736
  H      69.425223    -12.970905     -5.201712
  H      69.417926    -14.395079     -4.169787
  H      68.609478    -14.437894     -5.732872
  C      67.902088    -14.539797     -1.555490
  H      68.851430    -14.205754     -1.982638
  H      67.377161    -13.668380     -1.157995
  H      68.138971    -15.194921     -0.714755
  O      65.316574    -13.836001     -3.484283
  C      64.247155    -14.236739     -4.276758
  H      63.359650    -13.710818     -3.928747
  H      64.405593    -13.982508     -5.330488
  H      64.060779    -15.311828     -4.207839
  C      65.878544    -16.003184     -1.899557
  H      65.284455    -16.576487     -2.613778
  H      66.254742    -16.705537     -1.152955
  H      65.215574    -15.296805     -1.401404
24
Coordinates from ORCA-job 26 Relaxed Surface Scan Step 20
  C      67.079663    -15.270650     -2.599022
  H      67.803183    -15.982529     -3.003292
  C      66.573498    -14.413376     -3.780926
  H      66.391622    -15.084651     -4.622550
  C      67.538890    -13.346406     -4.298907
  H      67.006585    -12.797040     -5.079258
  H      67.740496    -12.620241     -3.510143
  C      68.843038    -13.891098     -4.874666
  H      69.445500    -13.082560     -5.292346
  H      69.451325    -14.396177     -4.122964
  H      68.652796    -14.606442     -5.678997
  C      67.780688    -14.451232     -1.511918
  H      68.709309    -14.005381     -1.876962
  H      67.135319    -13.649411     -1.147283
  H      68.037579    -15.086391     -0.661730
  O      65.366443    -13.783117     -3.431183
  C      64.237799    -14.132179     -4.161479
  H      63.400183    -13.552867     -3.776464
  H      64.354618    -13.900106     -5.225696
  H      63.995826    -15.194232     -4.065904
  C      65.951569    -16.118786     -2.005441
  H      65.463641    -16.726889     -2.770643
  H      66.348509    -16.801777     -1.251690
  H      65.192467    -15.496192     -1.532419
24
Coordinates from ORCA-job 26 Relaxed Surface Scan Step 21
  C      67.113283    -15.263945     -2.581010
  H      67.916938    -15.895242     -2.968944
  C      66.571577    -14.438723     -3.763224
  H      66.342065    -15.138576     -4.572630
  C      67.525347    -13.393546     -4.344197
  H      66.982860    -12.879558     -5.141922
  H      67.730419    -12.633613     -3.588664
  C      68.828813    -13.952751     -4.906714
  H      69.406264    -13.164499     -5.392836
  H      69.460593    -14.388108     -4.130983
  H      68.640446    -14.728614     -5.653423
  C      67.689038    -14.395371     -1.459671
  H      68.573694    -13.844335     -1.785879
  H      66.948934    -13.674405     -1.108051
  H      67.986347    -15.014540     -0.610795
  O      65.389113    -13.790830     -3.365846
  C      64.255493    -14.012172     -4.133482
  H      63.443964    -13.424387     -3.707649
  H      64.396388    -13.698063     -5.173436
  H      63.957962    -15.065446     -4.130203
  C      66.038617    -16.213165     -2.044668
  H      65.630558    -16.842701     -2.839346
  H      66.457782    -16.875947     -1.284862
  H      65.214053    -15.661194     -1.593451
24
Coordinates from ORCA-job 26 Relaxed Surface Scan Step 22
  C      67.142986    -15.266617     -2.543554
  H      68.003603    -15.824974     -2.921710
  C      66.555963    -14.486632     -3.732077
  H      66.309447    -15.220595     -4.508660
  C      67.481214    -13.445154     -4.366722
  H      66.917626    -12.954722     -5.164415
  H      67.696713    -12.665639     -3.634282
  C      68.777941    -14.000967     -4.948131
  H      69.325349    -13.220558     -5.479527
  H      69.440543    -14.394645     -4.175907
  H      68.583179    -14.807354     -5.660060
  C      67.624609    -14.357654     -1.410087
  H      68.453003    -13.718712     -1.721385
  H      66.815564    -13.716143     -1.057889
  H      67.974839    -14.955039     -0.565766
  O      65.375734    -13.857433     -3.304315
  C      64.294214    -13.878456     -4.170346
  H      63.480671    -13.326508     -3.702679
  H      64.520410    -13.403954     -5.130821
  H      63.951724    -14.900272     -4.365692
  C      66.135025    -16.297332     -2.028816
  H      65.796388    -16.957403     -2.831346
  H      66.584903    -16.923796     -1.255793
  H      65.258898    -15.809175     -1.601906
24
Coordinates from ORCA-job 26 Relaxed Surface Scan Step 23
  C      67.165001    -15.252316     -2.511139
  H      68.085033    -15.721086     -2.871817
  C      66.544719    -14.516426     -3.709160
  H      66.278965    -15.282148     -4.450550
  C      67.458350    -13.494720     -4.394548
  H      66.881557    -13.015076     -5.188372
  H      67.702565    -12.701924     -3.685454
  C      68.734214    -14.071222     -5.002781
  H      69.262218    -13.308432     -5.577610
  H      69.424504    -14.440154     -4.242966
  H      68.514235    -14.899329     -5.681646
  C      67.528241    -14.317659     -1.354237
  H      68.273582    -13.574954     -1.641336
  H      66.646169    -13.787490     -0.994269
  H      67.944340    -14.889697     -0.522325
  O      65.370794    -13.888316     -3.267002
  C      64.334932    -13.751491     -4.176889
  H      63.509956    -13.254638     -3.669351
  H      64.613478    -13.146779     -5.044923
  H      63.983691    -14.724872     -4.536659
  C      66.237469    -16.372043     -2.032330
  H      66.006965    -17.070372     -2.840615
  H      66.702685    -16.943155     -1.226229
  H      65.296883    -15.965432     -1.659679
24
Coordinates from ORCA-job 26 Relaxed Surface Scan Step 24
  C      67.185330    -15.214250     -2.464160
  H      68.168626    -15.565822     -2.791001
  C      66.544409    -14.524196     -3.679698
  H      66.256901    -15.319444     -4.381961
  C      67.463873    -13.542107     -4.415455
  H      66.871081    -13.030628     -5.175854
  H      67.788650    -12.765975     -3.719633
  C      68.672509    -14.175589     -5.100499
  H      69.204997    -13.432496     -5.696604
  H      69.386604    -14.589431     -4.387578
  H      68.371130    -14.981513     -5.774682
  C      67.386253    -14.273158     -1.273317
  H      67.992113    -13.402817     -1.524560
  H      66.427613    -13.913406     -0.900893
  H      67.892789    -14.798759     -0.461010
  O      65.379748    -13.879351     -3.240283
  C      64.387687    -13.628929     -4.175123
  H      63.526292    -13.227882     -3.643871
  H      64.690594    -12.897873     -4.929470
  H      64.079392    -14.545398     -4.690489
  C      66.363703    -16.436072     -2.045536
  H      66.285602    -17.162342     -2.857991
  H      66.821344    -16.942288     -1.193084
  H      65.353308    -16.140004     -1.759137
