24
Coordinates from ORCA-job 27 Relaxed Surface Scan Step 1
  C      67.400513    -14.851290     -2.339477
  H      68.113336    -14.099426     -2.007966
  C      66.911186    -14.416438     -3.748150
  H      67.740656    -13.867048     -4.223318
  C      65.689835    -13.493150     -3.790509
  H      65.306362    -13.539272     -4.812265
  H      64.894382    -13.907114     -3.171135
  C      65.969932    -12.045298     -3.402104
  H      65.062909    -11.441685     -3.467139
  H      66.346727    -11.960262     -2.380982
  H      66.713345    -11.594407     -4.064172
  C      66.308244    -14.918707     -1.267777
  H      65.894435    -13.928532     -1.053187
  H      65.490871    -15.581182     -1.559671
  H      66.726680    -15.301787     -0.334701
  O      66.616791    -15.571923     -4.489602
  C      66.918360    -15.552839     -5.841069
  H      66.616529    -16.509354     -6.264305
  H      66.388390    -14.760078     -6.378854
  H      67.992372    -15.421207     -6.012562
  C      68.193992    -16.159428     -2.407889
  H      68.966365    -16.115695     -3.178421
  H      68.688565    -16.346283     -1.452073
  H      67.549771    -17.007327     -2.634557
24
Coordinates from ORCA-job 27 Relaxed Surface Scan Step 2
  C      67.368527    -14.818544     -2.336876
  H      67.967330    -13.993800     -1.951868
  C      66.897025    -14.415684     -3.751671
  H      67.753177    -13.939558     -4.256519
  C      65.730564    -13.426461     -3.812570
  H      65.380677    -13.416654     -4.847132
  H      64.893910    -13.817642     -3.233389
  C      66.070710    -12.008532     -3.366299
  H      65.208113    -11.349135     -3.477094
  H      66.377615    -11.971607     -2.319300
  H      66.884464    -11.588283     -3.962629
  C      66.227216    -15.048401     -1.342122
  H      65.697380    -14.117919     -1.118369
  H      65.505963    -15.774540     -1.722551
  H      66.620774    -15.431896     -0.398558
  O      66.531272    -15.585739     -4.435685
  C      66.802407    -15.642423     -5.792804
  H      66.448452    -16.602641     -6.164032
  H      66.296017    -14.852151     -6.355982
  H      67.876933    -15.568489     -5.992673
  C      68.307483    -16.026185     -2.400809
  H      69.102495    -15.871180     -3.134194
  H      68.780650    -16.189904     -1.430168
  H      67.771391    -16.932362     -2.678594
24
Coordinates from ORCA-job 27 Relaxed Surface Scan Step 3
  C      67.335103    -14.790643     -2.335235
  H      67.814772    -13.904911     -1.913152
  C      66.878012    -14.420944     -3.757505
  H      67.757378    -14.026138     -4.287357
  C      65.773960    -13.363817     -3.843089
  H      65.476046    -13.291442     -4.891395
  H      64.890823    -13.725802     -3.315033
  C      66.167151    -11.980409     -3.334562
  H      65.363175    -11.263164     -3.508584
  H      66.376865    -11.980872     -2.263641
  H      67.057660    -11.605544     -3.845647
  C      66.177981    -15.179840     -1.411155
  H      65.512488    -14.335793     -1.216867
  H      65.587238    -15.988798     -1.843986
  H      66.560108    -15.520097     -0.446525
  O      66.443865    -15.597108     -4.388500
  C      66.680154    -15.718035     -5.748211
  H      66.279243    -16.676878     -6.072232
  H      66.192341    -14.930759     -6.331218
  H      67.751711    -15.696646     -5.974722
  C      68.400052    -15.889222     -2.381468
  H      69.220922    -15.617901     -3.050020
  H      68.824472    -16.054292     -1.388896
  H      67.979029    -16.830676     -2.732888
24
Coordinates from ORCA-job 27 Relaxed Surface Scan Step 4
  C      67.291800    -14.774502     -2.327390
  H      67.640145    -13.841227     -1.875150
  C      66.852596    -14.433744     -3.760198
  H      67.754074    -14.125976     -4.305029
  C      65.823714    -13.304145     -3.880822
  H      65.593336    -13.177776     -4.941273
  H      64.891966    -13.619744     -3.407958
  C      66.270099    -11.955261     -3.322614
  H      65.541999    -11.180693     -3.569547
  H      66.372150    -11.969689     -2.236761
  H      67.231226    -11.647003     -3.742524
  C      66.153629    -15.329137     -1.466977
  H      65.332326    -14.620215     -1.358336
  H      65.751263    -16.243529     -1.903284
  H      66.516658    -15.561752     -0.463671
  O      66.350614    -15.604702     -4.348029
  C      66.544269    -15.771380     -5.709838
  H      66.107149    -16.727111     -5.993692
  H      66.062500    -14.987688     -6.302176
  H      67.609165    -15.788374     -5.966456
  C      68.475119    -15.745394     -2.347812
  H      69.313957    -15.339256     -2.918278
  H      68.831466    -15.945163     -1.335133
  H      68.189328    -16.696274     -2.798935
24
Coordinates from ORCA-job 27 Relaxed Surface Scan Step 5
  C      67.222839    -14.777594     -2.303016
  H      67.396407    -13.817907     -1.807379
  C      66.817105    -14.454640     -3.752249
  H      67.739468    -14.236025     -4.300848
  C      65.880886    -13.249091     -3.912335
  H      65.697318    -13.103384     -4.979656
  H      64.914259    -13.486056     -3.461934
  C      66.412459    -11.927536     -3.359464
  H      65.767767    -11.102850     -3.668154
  H      66.453109    -11.913949     -2.270108
  H      67.417537    -11.713784     -3.732936
  C      66.142437    -15.533682     -1.525107
  H      65.176958    -15.031006     -1.540863
  H      65.996751    -16.529570     -1.941594
  H      66.439934    -15.640264     -0.479641
  O      66.244382    -15.605890     -4.311552
  C      66.384219    -15.794004     -5.677196
  H      65.927589    -16.749522     -5.929224
  H      65.887731    -15.014986     -6.263086
  H      67.438474    -15.825913     -5.973691
  C      68.534697    -15.566878     -2.278255
  H      69.353265    -14.998459     -2.725820
  H      68.825164    -15.814921     -1.255264
  H      68.429793    -16.501820     -2.832511
24
Coordinates from ORCA-job 27 Relaxed Surface Scan Step 6
  C      67.069469    -14.823694     -2.249360
  H      66.923232    -13.904332     -1.676307
  C      66.733369    -14.489613     -3.725929
  H      67.677268    -14.364257     -4.267255
  C      65.926193    -13.195280     -3.881530
  H      65.600406    -13.105948     -4.919861
  H      65.017778    -13.271958     -3.277475
  C      66.694190    -11.922669     -3.529816
  H      66.073485    -11.042298     -3.705044
  H      67.008416    -11.894244     -2.485791
  H      67.590147    -11.819726     -4.147451
  C      66.150838    -15.886241     -1.640482
  H      65.096667    -15.643111     -1.757253
  H      66.311930    -16.856909     -2.107257
  H      66.356072    -15.980826     -0.571680
  O      66.054522    -15.574058     -4.298483
  C      66.210216    -15.775046     -5.660222
  H      65.653309    -16.670855     -5.929245
  H      65.824553    -14.942777     -6.256627
  H      67.261770    -15.927981     -5.927305
  C      68.534475    -15.241352     -2.096103
  H      69.213719    -14.452263     -2.426979
  H      68.773041    -15.469217     -1.055103
  H      68.745483    -16.135078     -2.689326
24
Coordinates from ORCA-job 27 Relaxed Surface Scan Step 7
  C      66.964536    -14.853231     -2.236503
  H      66.586556    -14.021777     -1.635743
  C      66.674226    -14.520903     -3.729609
  H      67.628708    -14.512552     -4.270041
  C      66.009051    -13.153905     -3.914622
  H      65.696140    -13.059673     -4.956759
  H      65.092321    -13.136899     -3.318675
  C      66.892657    -11.960943     -3.561355
  H      66.363871    -11.023945     -3.743986
  H      67.194302    -11.964548     -2.512714
  H      67.802056    -11.948043     -4.167535
  C      66.245198    -16.110213     -1.743178
  H      65.168521    -16.042169     -1.889952
  H      66.590319    -17.000523     -2.269077
  H      66.437258    -16.247145     -0.676322
  O      65.865840    -15.519812     -4.290810
  C      66.033153    -15.787228     -5.639517
  H      65.357464    -16.598821     -5.903624
  H      65.795721    -14.926872     -6.272737
  H      67.058009    -16.103163     -5.863775
  C      68.469866    -14.952641     -1.972741
  H      68.994461    -14.044430     -2.277601
  H      68.672507    -15.110753     -0.911465
  H      68.907808    -15.789540     -2.523545
24
Coordinates from ORCA-job 27 Relaxed Surface Scan Step 8
  C      66.879591    -14.881542     -2.234778
  H      66.311935    -14.167531     -1.630172
  C      66.631486    -14.542501     -3.729967
  H      67.581656    -14.665301     -4.266295
  C      66.114095    -13.118123     -3.959031
  H      65.869643    -13.020592     -5.019351
  H      65.166413    -13.023353     -3.422423
  C      67.051598    -11.981135     -3.565305
  H      66.618085    -11.020058     -3.847257
  H      67.235187    -11.950068     -2.490630
  H      68.018496    -12.064172     -4.067825
  C      66.389095    -16.279031     -1.850592
  H      65.319152    -16.386233     -2.015755
  H      66.891945    -17.052792     -2.434391
  H      66.597416    -16.465813     -0.794427
  O      65.697867    -15.439525     -4.270976
  C      65.859220    -15.798893     -5.598819
  H      65.068432    -16.503049     -5.851478
  H      65.784145    -14.944124     -6.278290
  H      66.824918    -16.287087     -5.770198
  C      68.359957    -14.723929     -1.868926
  H      68.756522    -13.746730     -2.144993
  H      68.508507    -14.847633     -0.794397
  H      68.965187    -15.480515     -2.375609
24
Coordinates from ORCA-job 27 Relaxed Surface Scan Step 9
  C      66.662939    -15.068709     -2.096316
  H      65.742731    -14.740813     -1.603058
  C      66.600095    -14.594260     -3.556972
  H      67.591443    -14.770755     -3.999616
  C      66.243628    -13.096930     -3.706621
  H      65.353944    -13.040456     -4.337082
  H      65.942516    -12.689617     -2.739176
  C      67.349401    -12.226847     -4.298649
  H      67.028814    -11.186310     -4.378922
  H      68.251212    -12.247275     -3.682953
  H      67.629347    -12.564942     -5.299258
  C      66.719996    -16.593909     -2.003836
  H      65.833189    -17.040469     -2.449967
  H      67.596573    -16.989286     -2.525745
  H      66.784426    -16.912280     -0.960934
  O      65.664935    -15.392842     -4.229022
  C      65.788563    -15.475384     -5.605670
  H      65.022086    -16.157053     -5.970002
  H      65.646291    -14.508282     -6.098731
  H      66.769292    -15.866347     -5.898841
  C      67.840097    -14.426582     -1.357651
  H      67.795516    -13.336589     -1.374317
  H      67.849047    -14.735001     -0.310794
  H      68.794465    -14.728795     -1.797753
24
Coordinates from ORCA-job 27 Relaxed Surface Scan Step 10
  C      66.659875    -15.070010     -2.173749
  H      65.672464    -14.899510     -1.732165
  C      66.542997    -14.599596     -3.632590
  H      67.462284    -14.881644     -4.164705
  C      66.317751    -13.084192     -3.804808
  H      65.626068    -12.944684     -4.635937
  H      65.798683    -12.691993     -2.926654
  C      67.574530    -12.263686     -4.088647
  H      67.326177    -11.206627     -4.201834
  H      68.317147    -12.342235     -3.294906
  H      68.051056    -12.589771     -5.016509
  C      66.953020    -16.570369     -2.103658
  H      66.208678    -17.146082     -2.648806
  H      67.936757    -16.797236     -2.525842
  H      66.954533    -16.913777     -1.066978
  O      65.469237    -15.314256     -4.186989
  C      65.513987    -15.559896     -5.549127
  H      64.617808    -16.116145     -5.818276
  H      65.533950    -14.639126     -6.141208
  H      66.389738    -16.158971     -5.822160
  C      67.691773    -14.293016     -1.353345
  H      67.455421    -13.231991     -1.277714
  H      67.731872    -14.687846     -0.336678
  H      68.694742    -14.387074     -1.778600
24
Coordinates from ORCA-job 27 Relaxed Surface Scan Step 11
  C      66.657333    -15.096359     -2.216746
  H      65.628417    -15.092885     -1.842188
  C      66.515103    -14.615594     -3.676665
  H      67.365080    -14.976816     -4.270089
  C      66.402064    -13.092023     -3.861299
  H      65.808368    -12.900083     -4.753545
  H      65.827174    -12.668133     -3.034685
  C      67.728426    -12.352441     -4.031744
  H      67.552265    -11.285814     -4.183676
  H      68.389054    -12.454164     -3.172454
  H      68.268458    -12.722125     -4.907075
  C      67.181153    -16.533699     -2.160240
  H      66.620883    -17.200151     -2.810245
  H      68.231713    -16.574868     -2.462596
  H      67.117016    -16.929669     -1.144613
  O      65.359555    -15.255620     -4.158792
  C      65.312201    -15.536830     -5.513903
  H      64.360961    -16.024215     -5.720418
  H      65.374695    -14.636501     -6.133400
  H      66.120492    -16.213027     -5.814068
  C      67.504754    -14.217465     -1.293425
  H      67.140084    -13.193094     -1.229292
  H      67.484595    -14.630263     -0.283099
  H      68.550704    -14.187892     -1.607627
24
Coordinates from ORCA-job 27 Relaxed Surface Scan Step 12
  C      66.658495    -15.136966     -2.244344
  H      65.631141    -15.327030     -1.923331
  C      66.483152    -14.635791     -3.704406
  H      67.265597    -15.069326     -4.340015
  C      66.488477    -13.113652     -3.913296
  H      65.973592    -12.898338     -4.847993
  H      65.890070    -12.635176     -3.135816
  C      67.871879    -12.471410     -4.007414
  H      67.780192    -11.402042     -4.206678
  H      68.460260    -12.582564     -3.098748
  H      68.447001    -12.907844     -4.828038
  C      67.423055    -16.463116     -2.206541
  H      67.023597    -17.189840     -2.909754
  H      68.477131    -16.309118     -2.455100
  H      67.382035    -16.909357     -1.210782
  O      65.258953    -15.184221     -4.132235
  C      65.129231    -15.471380     -5.480696
  H      64.139750    -15.897784     -5.636221
  H      65.219279    -14.582843     -6.113338
  H      65.876525    -16.201499     -5.811329
  C      67.284425    -14.175026     -1.229401
  H      66.785415    -13.207483     -1.194896
  H      67.205666    -14.612464     -0.232213
  H      68.345629    -14.005458     -1.419299
24
Coordinates from ORCA-job 27 Relaxed Surface Scan Step 13
  C      66.657292    -15.194065     -2.254024
  H      65.690206    -15.629289     -2.003003
  C      66.451678    -14.655847     -3.703039
  H      67.185656    -15.147514     -4.352848
  C      66.594478    -13.145220     -3.932851
  H      66.074995    -12.907133     -4.862306
  H      66.066637    -12.594686     -3.153820
  C      68.035066    -12.653656     -4.061276
  H      68.059686    -11.576356     -4.235107
  H      68.631559    -12.853267     -3.171463
  H      68.536318    -13.133223     -4.905766
  C      67.686133    -16.328376     -2.238941
  H      67.421386    -17.108029     -2.956049
  H      68.685352    -15.964133     -2.495146
  H      67.746378    -16.792058     -1.252172
  O      65.170426    -15.084780     -4.097708
  C      64.977444    -15.358725     -5.441379
  H      63.952141    -15.702504     -5.566445
  H      65.120608    -14.480697     -6.078860
  H      65.652272    -16.147386     -5.792762
  C      66.968435    -14.171386     -1.157043
  H      66.215644    -13.385429     -1.100297
  H      66.977032    -14.676913     -0.189363
  H      67.943724    -13.699058     -1.280216
24
Coordinates from ORCA-job 27 Relaxed Surface Scan Step 14
  C      66.683379    -15.241033     -2.289392
  H      65.809088    -15.863024     -2.104081
  C      66.438639    -14.679304     -3.718762
  H      67.109606    -15.224023     -4.392385
  C      66.695369    -13.188494     -3.963239
  H      66.212680    -12.940090     -4.912353
  H      66.183121    -12.593080     -3.206714
  C      68.168463    -12.796955     -4.048938
  H      68.272188    -11.729881     -4.253467
  H      68.711202    -13.005789     -3.126482
  H      68.672411    -13.335865     -4.855137
  C      67.899287    -16.172632     -2.263171
  H      67.759145    -16.998549     -2.968825
  H      68.823226    -15.652694     -2.530564
  H      68.039878    -16.606002     -1.270795
  O      65.105691    -14.982493     -4.050921
  C      64.826115    -15.260631     -5.378575
  H      63.767072    -15.501779     -5.451713
  H      65.027201    -14.413501     -6.041714
  H      65.402338    -16.119633     -5.740273
  C      66.720362    -14.212344     -1.156874
  H      65.816436    -13.602073     -1.143895
  H      66.777960    -14.727176     -0.195695
  H      67.579689    -13.542685     -1.217921
24
Coordinates from ORCA-job 27 Relaxed Surface Scan Step 15
  C      66.715217    -15.280289     -2.333937
  H      65.933439    -16.029934     -2.212541
  C      66.440591    -14.700453     -3.742849
  H      67.033127    -15.294927     -4.447305
  C      66.784134    -13.229611     -3.999454
  H      66.340982    -12.975163     -4.966666
  H      66.270755    -12.604865     -3.267151
  C      68.271729    -12.891321     -4.036289
  H      68.418479    -11.848638     -4.323461
  H      68.754513    -13.031817     -3.068805
  H      68.803243    -13.509555     -4.764084
  C      68.050383    -16.028549     -2.266083
  H      68.058718    -16.858093     -2.981437
  H      68.905610    -15.385772     -2.484514
  H      68.204344    -16.452190     -1.271472
  O      65.070852    -14.891261     -3.999777
  C      64.699375    -15.181048     -5.302283
  H      63.619033    -15.314002     -5.318614
  H      64.953181    -14.379753     -6.003302
  H      65.166839    -16.105763     -5.658707
  C      66.538901    -14.284995     -1.186034
  H      65.567668    -13.791332     -1.242603
  H      66.587675    -14.806616     -0.227952
  H      67.311759    -13.513783     -1.176564
24
Coordinates from ORCA-job 27 Relaxed Surface Scan Step 16
  C      66.742372    -15.310100     -2.371429
  H      66.049621    -16.151571     -2.310670
  C      66.448215    -14.712919     -3.763948
  H      66.959225    -15.347592     -4.497853
  C      66.860458    -13.260539     -4.031339
  H      66.432305    -12.993490     -5.000946
  H      66.365439    -12.613909     -3.305068
  C      68.357310    -12.964655     -4.064778
  H      68.532562    -11.950675     -4.428560
  H      68.817811    -13.037019     -3.079692
  H      68.888624    -13.648151     -4.731779
  C      68.150721    -15.897007     -2.239342
  H      68.339940    -16.640683     -3.018709
  H      68.935021    -15.142088     -2.298031
  H      68.257100    -16.400921     -1.276396
  O      65.057313    -14.813106     -3.951894
  C      64.606699    -15.117087     -5.225812
  H      63.519028    -15.151424     -5.195666
  H      64.902745    -14.368417     -5.967433
  H      64.973847    -16.093292     -5.561779
  C      66.394534    -14.369671     -1.216785
  H      65.385352    -13.972318     -1.330619
  H      66.437054    -14.905298     -0.266045
  H      67.087251    -13.527799     -1.147312
24
Coordinates from ORCA-job 27 Relaxed Surface Scan Step 17
  C      66.755375    -15.330397     -2.380692
  H      66.166410    -16.251069     -2.389213
  C      66.458814    -14.713839     -3.762329
  H      66.909958    -15.374349     -4.513823
  C      66.933020    -13.280208     -4.035564
  H      66.449711    -12.968225     -4.963625
  H      66.533637    -12.620651     -3.263180
  C      68.436367    -13.060904     -4.191548
  H      68.628899    -12.060689     -4.583781
  H      68.974838    -13.144254     -3.248942
  H      68.876694    -13.776202     -4.890744
  C      68.213965    -15.744206     -2.166902
  H      68.608525    -16.297793     -3.022049
  H      68.870991    -14.893620     -1.987800
  H      68.288260    -16.395404     -1.293613
  O      65.059853    -14.750647     -3.909961
  C      64.562081    -15.047709     -5.167684
  H      63.475261    -15.017430     -5.112701
  H      64.884622    -14.328961     -5.927782
  H      64.863665    -16.048855     -5.495381
  C      66.236060    -14.479715     -1.220446
  H      65.195655    -14.198036     -1.379645
  H      66.295292    -15.039464     -0.284368
  H      66.822595    -13.567103     -1.090110
24
Coordinates from ORCA-job 27 Relaxed Surface Scan Step 18
  C      66.753322    -15.367880     -2.291986
  H      66.370597    -16.390145     -2.366130
  C      66.501643    -14.756994     -3.682697
  H      66.970809    -15.424657     -4.417653
  C      67.059326    -13.333150     -3.895291
  H      66.319645    -12.763087     -4.457959
  H      67.150344    -12.819365     -2.936889
  C      68.391306    -13.270599     -4.640603
  H      68.719919    -12.236163     -4.758088
  H      69.183675    -13.808577     -4.119288
  H      68.303199    -13.703609     -5.640137
  C      68.239294    -15.458293     -1.940663
  H      68.814656    -15.951281     -2.726653
  H      68.679372    -14.473345     -1.771181
  H      68.374640    -16.034896     -1.023768
  O      65.114061    -14.794271     -3.887426
  C      64.677784    -14.884569     -5.198411
  H      63.589404    -14.900340     -5.188686
  H      65.000839    -14.034700     -5.808243
  H      65.033876    -15.802897     -5.678699
  C      65.962259    -14.673752     -1.180613
  H      64.902059    -14.635690     -1.422409
  H      66.079326    -15.218898     -0.241281
  H      66.309191    -13.652574     -1.007131
24
Coordinates from ORCA-job 27 Relaxed Surface Scan Step 19
  C      66.780672    -15.383192     -2.313384
  H      66.530505    -16.445076     -2.411086
  C      66.498542    -14.763036     -3.700587
  H      66.882524    -15.456985     -4.460990
  C      67.125648    -13.370411     -3.932847
  H      66.429142    -12.772217     -4.517638
  H      67.223135    -12.844529     -2.981305
  C      68.466342    -13.370867     -4.666375
  H      68.815799    -12.348385     -4.822399
  H      69.246185    -13.901096     -4.121241
  H      68.374532    -13.839614     -5.649375
  C      68.251604    -15.306076     -1.896393
  H      68.925850    -15.645588     -2.680733
  H      68.544677    -14.288617     -1.630451
  H      68.423175    -15.931923     -1.019015
  O      65.103814    -14.719251     -3.849424
  C      64.610933    -14.796481     -5.140973
  H      63.524569    -14.753196     -5.087541
  H      64.954448    -13.970376     -5.771870
  H      64.897283    -15.736639     -5.625635
  C      65.888751    -14.797252     -1.215287
  H      64.835584    -14.940789     -1.442510
  H      66.105185    -15.281911     -0.260488
  H      66.061648    -13.726225     -1.084340
24
Coordinates from ORCA-job 27 Relaxed Surface Scan Step 20
  C      66.820732    -15.389063     -2.339382
  H      66.722818    -16.471738     -2.482951
  C      66.500915    -14.744576     -3.719007
  H      66.789236    -15.460304     -4.498923
  C      67.189992    -13.392796     -4.002552
  H      66.540660    -12.810628     -4.652988
  H      67.264165    -12.814404     -3.079409
  C      68.550826    -13.465445     -4.696081
  H      68.910329    -12.460044     -4.923968
  H      69.317210    -13.953848     -4.097858
  H      68.475536    -14.007173     -5.642485
  C      68.248201    -15.150795     -1.836702
  H      69.006297    -15.394655     -2.575255
  H      68.405038    -14.113167     -1.536584
  H      68.433885    -15.772640     -0.959455
  O      65.105326    -14.606490     -3.800603
  C      64.539879    -14.694692     -5.061328
  H      63.463917    -14.569111     -4.953825
  H      64.906700    -13.920564     -5.742801
  H      64.730777    -15.670966     -5.520926
  C      65.828295    -14.963940     -1.252067
  H      64.811432    -15.255526     -1.498385
  H      66.100558    -15.426455     -0.300674
  H      65.837822    -13.880715     -1.107679
24
Coordinates from ORCA-job 27 Relaxed Surface Scan Step 21
  C      66.862770    -15.370493     -2.330496
  H      66.928698    -16.447563     -2.521628
  C      66.522201    -14.711789     -3.709419
  H      66.754133    -15.448204     -4.486626
  C      67.268334    -13.406057     -4.054928
  H      66.611359    -12.803259     -4.680405
  H      67.431343    -12.813792     -3.153624
  C      68.578032    -13.584317     -4.822976
  H      69.019680    -12.612910     -5.053566
  H      69.324189    -14.157387     -4.274759
  H      68.403661    -14.097993     -5.771805
  C      68.209944    -14.964260     -1.720761
  H      69.042243    -15.062695     -2.412276
  H      68.198578    -13.934139     -1.360824
  H      68.425177    -15.602861     -0.862513
  O      65.135090    -14.497498     -3.753758
  C      64.526345    -14.588351     -4.993796
  H      63.461543    -14.408370     -4.856504
  H      64.907450    -13.849224     -5.705775
  H      64.656331    -15.583200     -5.434398
  C      65.763032    -15.153601     -1.284849
  H      64.813268    -15.575885     -1.600723
  H      66.054394    -15.625098     -0.343562
  H      65.602751    -14.090787     -1.091917
24
Coordinates from ORCA-job 27 Relaxed Surface Scan Step 22
  C      66.908502    -15.339863     -2.335771
  H      67.129603    -16.386870     -2.561616
  C      66.537364    -14.674314     -3.709506
  H      66.706652    -15.431380     -4.483591
  C      67.332591    -13.421469     -4.122157
  H      66.682191    -12.828216     -4.766060
  H      67.531715    -12.793010     -3.254026
  C      68.623037    -13.701866     -4.890744
  H      69.132727    -12.769811     -5.142071
  H      69.326826    -14.317073     -4.330317
  H      68.410611    -14.222619     -5.827834
  C      68.154504    -14.781624     -1.637031
  H      69.038656    -14.785342     -2.272106
  H      67.999908    -13.761889     -1.280155
  H      68.384095    -15.397047     -0.765461
  O      65.166074    -14.371772     -3.700968
  C      64.490822    -14.482281     -4.904379
  H      63.447966    -14.225696     -4.726265
  H      64.881633    -13.805326     -5.670937
  H      64.534757    -15.503680     -5.298714
  C      65.738848    -15.345178     -1.344550
  H      64.868444    -15.858776     -1.745553
  H      66.042848    -15.853125     -0.426490
  H      65.430174    -14.331505     -1.085584
24
Coordinates from ORCA-job 27 Relaxed Surface Scan Step 23
  C      66.952287    -15.304165     -2.347848
  H      67.320328    -16.301138     -2.592561
  C      66.549788    -14.643425     -3.713640
  H      66.650828    -15.421197     -4.482522
  C      67.387882    -13.446219     -4.189390
  H      66.748377    -12.869972     -4.861034
  H      67.604063    -12.779345     -3.355056
  C      68.671436    -13.816618     -4.928535
  H      69.221994    -12.921477     -5.223638
  H      69.342165    -14.427855     -4.323354
  H      68.449212    -14.380472     -5.837920
  C      68.078376    -14.610570     -1.572163
  H      69.003013    -14.543192     -2.147687
  H      67.798996    -13.604908     -1.252504
  H      68.304585    -15.185605     -0.672349
  O      65.203351    -14.250411     -3.645802
  C      64.451069    -14.377018     -4.800904
  H      63.440631    -14.037444     -4.579899
  H      64.840745    -13.771763     -5.625897
  H      64.401610    -15.418583     -5.137510
  C      65.746453    -15.524407     -1.427344
  H      64.961507    -16.096407     -1.919459
  H      66.062714    -16.077711     -0.540147
  H      65.309137    -14.579828     -1.104724
24
Coordinates from ORCA-job 27 Relaxed Surface Scan Step 24
  C      66.991985    -15.268630     -2.362566
  H      67.499906    -16.197549     -2.613929
  C      66.559603    -14.621750     -3.717803
  H      66.589044    -15.419659     -4.476135
  C      67.434855    -13.481094     -4.252333
  H      66.811162    -12.922862     -4.954137
  H      67.662385    -12.777710     -3.451803
  C      68.714929    -13.931352     -4.949863
  H      69.291885    -13.072886     -5.298408
  H      69.361552    -14.514383     -4.291689
  H      68.490599    -14.552415     -5.820598
  C      67.979931    -14.453078     -1.521580
  H      68.932527    -14.307101     -2.038162
  H      67.579618    -13.474483     -1.249104
  H      68.197684    -14.986628     -0.594299
  O      65.244634    -14.145832     -3.590027
  C      64.417580    -14.270382     -4.693258
  H      63.446809    -13.852762     -4.431848
  H      64.796926    -13.729720     -5.566516
  H      64.279097    -15.319606     -4.976800
  C      65.782445    -15.688012     -1.520590
  H      65.086768    -16.299979     -2.095667
  H      66.117663    -16.277080     -0.663924
  H      65.230960    -14.824780     -1.150847
