27
Coordinates from ORCA-job 30 Relaxed Surface Scan Step 1
  C      70.405700    -17.399689     -3.074880
  H      70.427518    -18.457426     -3.344982
  H      71.018346    -16.859818     -3.801047
  H      70.885193    -17.297246     -2.098067
  C      68.976331    -16.865449     -3.050961
  H      68.523162    -17.017252     -4.033426
  H      68.390274    -17.455625     -2.341774
  C      68.920506    -15.380654     -2.689119
  H      69.420528    -15.251883     -1.723495
  H      69.529200    -14.849098     -3.422229
  C      67.524534    -14.695943     -2.609486
  H      67.325102    -14.484049     -1.556765
  C      67.589562    -13.318140     -3.289184
  H      68.465327    -12.799243     -2.876791
  C      66.356348    -15.543234     -3.127910
  H      65.398288    -15.081502     -2.885679
  H      66.405173    -15.676319     -4.208085
  H      66.349303    -16.528263     -2.663107
  C      66.366193    -12.441066     -3.035473
  H      66.169814    -12.356159     -1.965184
  H      66.519042    -11.431886     -3.420205
  H      65.480600    -12.851184     -3.520191
  C      68.343279    -12.489526     -5.394523
  H      68.533793    -12.859377     -6.400464
  H      67.673047    -11.628350     -5.470223
  H      69.292373    -12.148502     -4.965908
  O      67.795243    -13.527973     -4.658892
27
Coordinates from ORCA-job 30 Relaxed Surface Scan Step 2
  C      70.407834    -17.318657     -3.195663
  H      70.446668    -18.317524     -3.635025
  H      71.067758    -16.673772     -3.781156
  H      70.822034    -17.384876     -2.186320
  C      68.980448    -16.779356     -3.176706
  H      68.592368    -16.757433     -4.196726
  H      68.347980    -17.475702     -2.620934
  C      68.898277    -15.380592     -2.562968
  H      69.294765    -15.433713     -1.544933
  H      69.593851    -14.744560     -3.113307
  C      67.508815    -14.675631     -2.519202
  H      67.307192    -14.422855     -1.473959
  C      67.586334    -13.335666     -3.268338
  H      68.451407    -12.793675     -2.864011
  C      66.333163    -15.534728     -2.998210
  H      65.387645    -15.012439     -2.850402
  H      66.416381    -15.777369     -4.056175
  H      66.272897    -16.466837     -2.436248
  C      66.360387    -12.442921     -3.094401
  H      66.129694    -12.310425     -2.035804
  H      66.534087    -11.452270     -3.516752
  H      65.487738    -12.866702     -3.590487
  C      68.387086    -12.627156     -5.400664
  H      68.605920    -13.054713     -6.377529
  H      67.713384    -11.777447     -5.544572
  H      69.322568    -12.253598     -4.969238
  O      67.827096    -13.624239     -4.618319
27
Coordinates from ORCA-job 30 Relaxed Surface Scan Step 3
  C      70.405413    -17.222741     -3.308747
  H      70.465365    -18.139041     -3.899693
  H      71.104847    -16.503544     -3.742125
  H      70.755884    -17.456464     -2.300035
  C      68.983076    -16.670324     -3.290174
  H      68.657780    -16.471505     -4.311942
  H      68.311826    -17.439105     -2.899615
  C      68.865117    -15.397809     -2.448451
  H      69.146428    -15.641519     -1.421031
  H      69.630813    -14.697708     -2.790737
  C      67.495620    -14.660285     -2.437620
  H      67.300192    -14.359449     -1.401554
  C      67.593739    -13.361331     -3.253397
  H      68.452844    -12.802661     -2.859922
  C      66.308763    -15.526468     -2.871711
  H      65.377559    -14.964226     -2.806464
  H      66.411958    -15.866267     -3.900393
  H      66.207952    -16.403023     -2.229569
  C      66.370116    -12.453858     -3.151866
  H      66.107422    -12.280157     -2.106772
  H      66.565490    -11.480858     -3.604724
  H      65.509824    -12.889120     -3.659424
  C      68.426910    -12.762037     -5.407012
  H      68.677147    -13.242308     -6.351278
  H      67.743845    -11.933947     -5.617207
  H      69.345206    -12.348139     -4.975536
  O      67.862645    -13.720963     -4.581050
27
Coordinates from ORCA-job 30 Relaxed Surface Scan Step 4
  C      70.416295    -17.147655     -3.358363
  H      70.512761    -17.979641     -4.059084
  H      71.151842    -16.390466     -3.641405
  H      70.689824    -17.517689     -2.366678
  C      69.000824    -16.577540     -3.370049
  H      68.751041    -16.233601     -4.373417
  H      68.297141    -17.380924     -3.138053
  C      68.824673    -15.434793     -2.366267
  H      68.971805    -15.840855     -1.361775
  H      69.641844    -14.720936     -2.504514
  C      67.486097    -14.654147     -2.398246
  H      67.304651    -14.302144     -1.375561
  C      67.608347    -13.387309     -3.260365
  H      68.480166    -12.833755     -2.888360
  C      66.284518    -15.518938     -2.790440
  H      65.356294    -14.952051     -2.723556
  H      66.370254    -15.884465     -3.812282
  H      66.192803    -16.380464     -2.125912
  C      66.401028    -12.455753     -3.177256
  H      66.148633    -12.246277     -2.136273
  H      66.608528    -11.500182     -3.660686
  H      65.530244    -12.892643     -3.665472
  C      68.426664    -12.853673     -5.436653
  H      68.675702    -13.364274     -6.365212
  H      67.744238    -12.032210     -5.672903
  H      69.345701    -12.427279     -5.019293
  O      67.861860    -13.785193     -4.579974
27
Coordinates from ORCA-job 30 Relaxed Surface Scan Step 5
  C      70.448817    -17.131257     -3.301397
  H      70.621043    -17.863737     -4.092810
  H      71.248406    -16.388266     -3.359919
  H      70.551083    -17.649203     -2.344088
  C      69.075001    -16.481416     -3.440449
  H      68.992406    -15.993569     -4.410668
  H      68.313005    -17.264669     -3.427968
  C      68.791175    -15.475207     -2.321925
  H      68.792637    -16.018593     -1.371594
  H      69.629767    -14.774603     -2.253680
  C      67.481956    -14.658632     -2.402320
  H      67.310315    -14.273838     -1.391082
  C      67.621448    -13.409039     -3.287770
  H      68.536376    -12.892573     -2.969735
  C      66.268807    -15.516660     -2.772917
  H      65.339027    -14.957111     -2.668762
  H      66.328821    -15.867699     -3.801891
  H      66.200619    -16.388098     -2.117947
  C      66.460509    -12.426596     -3.142054
  H      66.289739    -12.185683     -2.091512
  H      66.669717    -11.490207     -3.660838
  H      65.541526    -12.838927     -3.558427
  C      68.330425    -12.911651     -5.510477
  H      68.508240    -13.434705     -6.448467
  H      67.667317    -12.065982     -5.713596
  H      69.286521    -12.518733     -5.146982
  O      67.779078    -13.818202     -4.618772
27
Coordinates from ORCA-job 30 Relaxed Surface Scan Step 6
  C      70.482452    -17.112527     -3.218817
  H      70.793813    -17.682488     -4.096734
  H      71.310228    -16.454278     -2.942228
  H      70.338340    -17.821021     -2.399059
  C      69.209804    -16.317891     -3.499550
  H      69.371382    -15.654456     -4.348522
  H      68.420587    -17.008310     -3.805774
  C      68.749971    -15.510251     -2.283766
  H      68.610302    -16.201731     -1.446010
  H      69.562235    -14.842257     -1.977317
  C      67.460043    -14.675478     -2.413962
  H      67.280522    -14.274763     -1.410572
  C      67.621741    -13.441843     -3.319682
  H      68.600261    -12.997427     -3.095653
  C      66.243006    -15.527752     -2.786218
  H      65.315507    -14.960494     -2.700410
  H      66.309810    -15.895497     -3.808327
  H      66.162369    -16.386734     -2.116249
  C      66.558218    -12.374033     -3.069612
  H      66.557533    -12.070614     -2.021477
  H      66.746908    -11.481430     -3.667180
  H      65.564417    -12.741432     -3.325654
  C      68.181101    -13.016309     -5.599196
  H      68.197079    -13.544445     -6.550938
  H      67.611876    -12.092095     -5.733230
  H      69.210436    -12.749453     -5.334400
  O      67.613836    -13.859845     -4.657514
27
Coordinates from ORCA-job 30 Relaxed Surface Scan Step 7
  C      70.467949    -17.106481     -3.218725
  H      70.904546    -17.509507     -4.134956
  H      71.268506    -16.614028     -2.660381
  H      70.120578    -17.951169     -2.618487
  C      69.329511    -16.138266     -3.528858
  H      69.704456    -15.344145     -4.176593
  H      68.558500    -16.655984     -4.102766
  C      68.727368    -15.528235     -2.261437
  H      68.500225    -16.337736     -1.559869
  H      69.497392    -14.920840     -1.773215
  C      67.450842    -14.675617     -2.397973
  H      67.290839    -14.247068     -1.404986
  C      67.617607    -13.467850     -3.336559
  H      68.618121    -13.050388     -3.161649
  C      66.216777    -15.522946     -2.727461
  H      65.292375    -14.955911     -2.604382
  H      66.245350    -15.897240     -3.749223
  H      66.157976    -16.377482     -2.050016
  C      66.597591    -12.362639     -3.070375
  H      66.660429    -12.022423     -2.035492
  H      66.776137    -11.497519     -3.710031
  H      65.582721    -12.712790     -3.259857
  C      68.118894    -13.125341     -5.642514
  H      68.059894    -13.668368     -6.584068
  H      67.604183    -12.168567     -5.768800
  H      69.173663    -12.920673     -5.427216
  O      67.541349    -13.915642     -4.662160
27
Coordinates from ORCA-job 30 Relaxed Surface Scan Step 8
  C      70.467389    -17.092209     -3.247665
  H      71.006456    -17.367881     -4.156506
  H      71.205275    -16.753061     -2.515743
  H      70.003447    -17.998626     -2.850758
  C      69.425420    -16.012706     -3.529226
  H      69.929407    -15.151681     -3.976208
  H      68.712746    -16.374103     -4.271734
  C      68.699794    -15.568438     -2.257102
  H      68.395231    -16.461589     -1.703597
  H      69.428039    -15.055884     -1.619542
  C      67.447158    -14.672665     -2.383538
  H      67.333370    -14.208835     -1.402975
  C      67.618255    -13.491146     -3.352894
  H      68.624902    -13.080683     -3.197338
  C      66.172454    -15.487781     -2.642795
  H      65.270754    -14.923009     -2.393919
  H      66.101446    -15.809745     -3.681007
  H      66.162867    -16.376425     -2.009142
  C      66.612683    -12.368962     -3.101838
  H      66.686358    -12.008420     -2.074566
  H      66.796401    -11.519147     -3.760256
  H      65.592872    -12.712039     -3.277352
  C      68.097693    -13.206395     -5.670946
  H      68.022727    -13.770047     -6.599155
  H      67.591407    -12.247433     -5.813651
  H      69.156687    -13.008109     -5.471935
  O      67.522540    -13.967839     -4.666662
27
Coordinates from ORCA-job 30 Relaxed Surface Scan Step 9
  C      70.547319    -17.009747     -3.265965
  H      71.238542    -17.097053     -4.106883
  H      71.143525    -16.862282     -2.361691
  H      70.027530    -17.965705     -3.165199
  C      69.562604    -15.862560     -3.478761
  H      70.135084    -14.941528     -3.621278
  H      68.998977    -16.028848     -4.396105
  C      68.612038    -15.700429     -2.289336
  H      68.184898    -16.682294     -2.072594
  H      69.222438    -15.447579     -1.416952
  C      67.431905    -14.687805     -2.373002
  H      67.395969    -14.191471     -1.402516
  C      67.627930    -13.540490     -3.378529
  H      68.659953    -13.182116     -3.280388
  C      66.090419    -15.411248     -2.551195
  H      65.237594    -14.753817     -2.371638
  H      65.996417    -15.832757     -3.551946
  H      66.010380    -16.225804     -1.829230
  C      66.703018    -12.354125     -3.108953
  H      66.834303    -11.987655     -2.089592
  H      66.919600    -11.524934     -3.783425
  H      65.657906    -12.630923     -3.246901
  C      67.988445    -13.322309     -5.725502
  H      67.847152    -13.904800     -6.634206
  H      67.505383    -12.351279     -5.866322
  H      69.061992    -13.154458     -5.586004
  O      67.442461    -14.040841     -4.673937
27
Coordinates from ORCA-job 30 Relaxed Surface Scan Step 10
  C      70.696044    -16.887167     -3.196008
  H      71.558778    -16.757490     -3.852757
  H      71.068400    -16.969787     -2.171908
  H      70.225340    -17.839229     -3.453294
  C      69.713937    -15.728324     -3.339782
  H      70.227004    -14.792760     -3.104172
  H      69.404160    -15.644435     -4.381847
  C      68.472238    -15.904664     -2.461238
  H      67.958232    -16.808560     -2.797327
  H      68.800510    -16.131458     -1.442229
  C      67.449536    -14.732459     -2.379462
  H      67.586964    -14.265375     -1.396940
  C      67.656743    -13.616340     -3.418183
  H      68.713214    -13.332818     -3.413637
  C      66.017805    -15.274533     -2.433750
  H      65.282824    -14.470272     -2.398492
  H      65.854566    -15.826133     -3.359112
  H      65.826572    -15.947570     -1.595186
  C      66.859232    -12.348280     -3.111454
  H      67.058991    -12.009721     -2.093501
  H      67.141307    -11.536961     -3.783656
  H      65.787318    -12.509975     -3.219457
  C      67.760317    -13.439980     -5.795889
  H      67.569124    -14.061051     -6.669297
  H      67.224721    -12.495610     -5.927111
  H      68.833668    -13.223045     -5.754327
  O      67.336232    -14.140860     -4.678035
27
Coordinates from ORCA-job 30 Relaxed Surface Scan Step 11
  C      70.748503    -16.863357     -3.110261
  H      71.712342    -16.644607     -3.574564
  H      70.933642    -17.114216     -2.062997
  H      70.342094    -17.754180     -3.595525
  C      69.791200    -15.682527     -3.237642
  H      70.231692    -14.800047     -2.763773
  H      69.682343    -15.423807     -4.292615
  C      68.405868    -15.972965     -2.653950
  H      67.903062    -16.691959     -3.304933
  H      68.523491    -16.484876     -1.693271
  C      67.489006    -14.753046     -2.412982
  H      67.781133    -14.332005     -1.441208
  C      67.660286    -13.642258     -3.462456
  H      68.719366    -13.370954     -3.502374
  C      66.028028    -15.196700     -2.305058
  H      65.365885    -14.344399     -2.148970
  H      65.711136    -15.694340     -3.221508
  H      65.891653    -15.891355     -1.473474
  C      66.888404    -12.362578     -3.140720
  H      67.092038    -12.042465     -2.117367
  H      67.188490    -11.547953     -3.801227
  H      65.813853    -12.502199     -3.253629
  C      67.649337    -13.484382     -5.843500
  H      67.442546    -14.121623     -6.701583
  H      67.082231    -12.557028     -5.964209
  H      68.716902    -13.236683     -5.846487
  O      67.289246    -14.182349     -4.701768
27
Coordinates from ORCA-job 30 Relaxed Surface Scan Step 12
  C      70.737221    -16.903116     -3.100660
  H      71.753869    -16.671880     -3.425255
  H      70.797858    -17.324646     -2.094417
  H      70.347577    -17.681529     -3.761215
  C      69.849776    -15.662362     -3.130743
  H      70.274010    -14.894717     -2.474897
  H      69.868166    -15.239994     -4.137622
  C      68.402839    -15.956195     -2.731036
  H      67.936459    -16.556970     -3.515230
  H      68.404234    -16.582211     -1.832768
  C      67.520134    -14.731459     -2.432534
  H      67.879770    -14.300420     -1.489649
  C      67.648117    -13.632385     -3.498713
  H      68.702760    -13.342306     -3.555821
  C      66.068270    -15.169456     -2.223246
  H      65.432860    -14.335760     -1.922329
  H      65.657023    -15.588495     -3.142124
  H      66.005742    -15.931956     -1.444158
  C      66.851382    -12.368077     -3.180250
  H      67.062778    -12.030244     -2.164119
  H      67.118868    -11.554263     -3.855611
  H      65.779274    -12.539519     -3.273298
  C      67.609350    -13.507640     -5.881016
  H      67.404248    -14.160275     -6.727859
  H      67.027137    -12.590703     -6.009554
  H      68.672902    -13.243874     -5.897965
  O      67.271155    -14.194406     -4.725959
27
Coordinates from ORCA-job 30 Relaxed Surface Scan Step 13
  C      70.732201    -16.939677     -3.105085
  H      71.788424    -16.719319     -3.273112
  H      70.659787    -17.543789     -2.197493
  H      70.384918    -17.554460     -3.938951
  C      69.910689    -15.658984     -2.986507
  H      70.296272    -15.058890     -2.155254
  H      70.059734    -15.062847     -3.889608
  C      68.420796    -15.929378     -2.777206
  H      68.018216    -16.429798     -3.660801
  H      68.313785    -16.636471     -1.948640
  C      67.547022    -14.706155     -2.455471
  H      67.940956    -14.250345     -1.539765
  C      67.630700    -13.620659     -3.540424
  H      68.681747    -13.325392     -3.634907
  C      66.107888    -15.154058     -2.180467
  H      65.487180    -14.338995     -1.807018
  H      65.644428    -15.543752     -3.087528
  H      66.092747    -15.943633     -1.426788
  C      66.834235    -12.360008     -3.208591
  H      67.083184    -12.003325     -2.207513
  H      67.062784    -11.554129     -3.907370
  H      65.761531    -12.546908     -3.253955
  C      67.536940    -13.531741     -5.922370
  H      67.299021    -14.192726     -6.754015
  H      66.967675    -12.606496     -6.049874
  H      68.604080    -13.287117     -5.970203
  O      67.216839    -14.195805     -4.749132
27
Coordinates from ORCA-job 30 Relaxed Surface Scan Step 14
  C      70.772297    -16.921637     -3.077543
  H      71.843871    -16.724046     -3.006750
  H      70.537593    -17.729995     -2.380837
  H      70.567915    -17.287098     -4.086743
  C      69.956043    -15.669725     -2.768263
  H      70.211994    -15.312746     -1.765272
  H      70.254065    -14.876766     -3.458643
  C      68.447859    -15.910488     -2.846191
  H      68.181144    -16.269467     -3.843056
  H      68.202168    -16.721505     -2.154413
  C      67.560208    -14.701937     -2.503154
  H      67.964947    -14.233549     -1.599156
  C      67.605809    -13.624608     -3.600207
  H      68.658614    -13.395008     -3.799204
  C      66.131860    -15.164421     -2.197478
  H      65.489025    -14.342641     -1.881113
  H      65.678884    -15.627387     -3.074363
  H      66.137886    -15.898511     -1.389569
  C      66.921012    -12.318145     -3.203791
  H      67.312571    -11.953655     -2.252450
  H      67.096432    -11.540214     -3.948070
  H      65.843588    -12.450280     -3.108536
  C      67.355235    -13.575748     -5.971449
  H      66.947364    -14.200111     -6.764456
  H      66.925739    -12.574760     -6.072113
  H      68.438986    -13.499578     -6.114698
  O      67.040669    -14.170832     -4.760530
27
Coordinates from ORCA-job 30 Relaxed Surface Scan Step 15
  C      70.810884    -16.883201     -3.062786
  H      71.859337    -16.735749     -2.795745
  H      70.484253    -17.824975     -2.615071
  H      70.757214    -16.998938     -4.147962
  C      69.948296    -15.717859     -2.588209
  H      70.062144    -15.604193     -1.505023
  H      70.323700    -14.791049     -3.032001
  C      68.464594    -15.897032     -2.910166
  H      68.334981    -16.115174     -3.973003
  H      68.108906    -16.783046     -2.377272
  C      67.575909    -14.694567     -2.539040
  H      68.007379    -14.213147     -1.655042
  C      67.592942    -13.630188     -3.648987
  H      68.641133    -13.451089     -3.918487
  C      66.158849    -15.155126     -2.183453
  H      65.521324    -14.332360     -1.858988
  H      65.681627    -15.634546     -3.038138
  H      66.194838    -15.875911     -1.364321
  C      66.990007    -12.293413     -3.224195
  H      67.482060    -11.919632     -2.324581
  H      67.115284    -11.539400     -4.002383
  H      65.923312    -12.388859     -3.022531
  C      67.222978    -13.616591     -6.004375
  H      66.707633    -14.210296     -6.757299
  H      66.886399    -12.580139     -6.099703
  H      68.297864    -13.648430     -6.215171
  O      66.929930    -14.159948     -4.764119
27
Coordinates from ORCA-job 30 Relaxed Surface Scan Step 16
  C      70.830613    -16.920702     -2.989711
  H      71.836969    -16.852953     -2.571441
  H      70.425756    -17.899821     -2.722185
  H      70.920092    -16.888048     -4.078253
  C      69.938673    -15.795691     -2.475250
  H      69.906599    -15.831968     -1.380896
  H      70.387103    -14.831331     -2.735623
  C      68.507753    -15.863281     -3.006833
  H      68.518289    -15.937279     -4.096497
  H      68.056956    -16.794667     -2.654846
  C      67.624625    -14.667532     -2.585995
  H      68.103181    -14.173449     -1.734104
  C      67.576732    -13.607765     -3.697935
  H      68.613013    -13.416893     -4.007357
  C      66.235073    -15.134973     -2.142157
  H      65.625676    -14.322269     -1.746048
  H      65.696130    -15.590085     -2.973272
  H      66.328668    -15.879594     -1.349137
  C      66.970731    -12.278976     -3.254085
  H      67.493115    -11.892632     -2.377143
  H      67.050894    -11.526897     -4.040040
  H      65.915006    -12.391541     -3.008047
  C      67.116805    -13.612926     -6.037216
  H      66.571308    -14.210891     -6.765074
  H      66.774515    -12.577481     -6.122689
  H      68.181932    -13.643778     -6.292903
  O      66.877575    -14.151435     -4.783311
27
Coordinates from ORCA-job 30 Relaxed Surface Scan Step 17
  C      70.814135    -17.035471     -2.867502
  H      71.752553    -17.079061     -2.310935
  H      70.311221    -17.997882     -2.745527
  H      71.060880    -16.924992     -3.926298
  C      69.934572    -15.887781     -2.383045
  H      69.739997    -16.007467     -1.312110
  H      70.481281    -14.944473     -2.486188
  C      68.603438    -15.785325     -3.126653
  H      68.794809    -15.690455     -4.197430
  H      68.065300    -16.729958     -3.014717
  C      67.711239    -14.614517     -2.647376
  H      68.228501    -14.109994     -1.825183
  C      67.556095    -13.557774     -3.750764
  H      68.567315    -13.308905     -4.100217
  C      66.369084    -15.118587     -2.109308
  H      65.770565    -14.318711     -1.671510
  H      65.785086    -15.584141     -2.903444
  H      66.535010    -15.863283     -1.327821
  C      66.894076    -12.264911     -3.281653
  H      67.418344    -11.857551     -2.415343
  H      66.915971    -11.504949     -4.063826
  H      65.852041    -12.432625     -3.010227
  C      66.993362    -13.587975     -6.067548
  H      66.457523    -14.219958     -6.773493
  H      66.578882    -12.577733     -6.132851
  H      68.045771    -13.546688     -6.370148
  O      66.846727    -14.143688     -4.806932
27
Coordinates from ORCA-job 30 Relaxed Surface Scan Step 18
  C      70.751642    -17.160766     -2.779300
  H      71.598269    -17.338661     -2.113049
  H      70.159689    -18.078428     -2.816107
  H      71.149715    -16.985458     -3.781844
  C      69.911045    -15.980017     -2.304924
  H      69.558479    -16.172265     -1.286970
  H      70.545757    -15.090501     -2.234431
  C      68.725043    -15.671687     -3.219915
  H      69.106672    -15.411268     -4.209873
  H      68.135123    -16.579372     -3.370423
  C      67.812245    -14.540054     -2.694470
  H      68.354877    -14.015237     -1.902274
  C      67.539949    -13.502787     -3.793051
  H      68.516894    -13.179420     -4.176366
  C      66.526987    -15.094880     -2.075106
  H      65.926266    -14.309049     -1.613959
  H      65.916220    -15.587023     -2.832212
  H      66.762822    -15.826566     -1.299201
  C      66.796102    -12.260503     -3.309993
  H      67.303642    -11.819560     -2.450094
  H      66.754152    -11.499174     -4.090073
  H      65.772226    -12.500390     -3.024314
  C      66.897060    -13.590583     -6.087668
  H      66.399664    -14.273207     -6.774342
  H      66.387462    -12.623993     -6.140223
  H      67.930177    -13.452123     -6.425742
  O      66.845597    -14.151884     -4.822125
27
Coordinates from ORCA-job 30 Relaxed Surface Scan Step 19
  C      70.690588    -17.234901     -2.762386
  H      71.424891    -17.557331     -2.021345
  H      70.065317    -18.096867     -3.006998
  H      71.234514    -16.955131     -3.668035
  C      69.850282    -16.073255     -2.241479
  H      69.349874    -16.377899     -1.318116
  H      70.512308    -15.247759     -1.960437
  C      68.827957    -15.563451     -3.258609
  H      69.370232    -15.183123     -4.128918
  H      68.226666    -16.396198     -3.631780
  C      67.895696    -14.463661     -2.714399
  H      68.453726    -13.901063     -1.958787
  C      67.532678    -13.464760     -3.822640
  H      68.477762    -13.091751     -4.238570
  C      66.659830    -15.056436     -2.031998
  H      66.055234    -14.284976     -1.552114
  H      66.032040    -15.573437     -2.758124
  H      66.948565    -15.772796     -1.260665
  C      66.729823    -12.259045     -3.341163
  H      67.229251    -11.777450     -2.498435
  H      66.629591    -11.513282     -4.130930
  H      65.727011    -12.551287     -3.030692
  C      66.834330    -13.632425     -6.096503
  H      66.365004    -14.357829     -6.758659
  H      66.262066    -12.701667     -6.151485
  H      67.847495    -13.434132     -6.463740
  O      66.851047    -14.172944     -4.821040
27
Coordinates from ORCA-job 30 Relaxed Surface Scan Step 20
  C      70.681877    -17.242876     -2.785703
  H      71.273341    -17.727295     -2.006090
  H      70.124300    -18.021805     -3.311256
  H      71.377732    -16.796604     -3.500440
  C      69.742775    -16.193966     -2.197165
  H      69.096209    -16.673365     -1.458472
  H      70.330965    -15.452166     -1.647109
  C      68.902966    -15.482965     -3.259151
  H      69.586718    -15.022284     -3.979284
  H      68.323566    -16.215843     -3.825790
  C      67.953662    -14.400993     -2.717528
  H      68.518554    -13.793281     -2.001620
  C      67.533159    -13.448319     -3.847726
  H      68.455546    -13.074058     -4.310397
  C      66.751009    -15.004764     -1.985524
  H      66.133681    -14.235800     -1.519469
  H      66.123465    -15.566262     -2.678216
  H      67.071941    -15.680636     -1.192468
  C      66.727300    -12.240067     -3.376928
  H      67.248828    -11.721328     -2.570456
  H      66.584242    -11.523845     -4.187159
  H      65.742180    -12.538333     -3.019231
  C      66.760692    -13.701493     -6.089358
  H      66.278692    -14.454396     -6.710468
  H      66.174951    -12.779933     -6.156059
  H      67.758304    -13.504017     -6.497228
  O      66.827125    -14.198163     -4.797756
27
Coordinates from ORCA-job 30 Relaxed Surface Scan Step 21
  C      70.702002    -17.218473     -2.782130
  H      71.118919    -17.875628     -2.016238
  H      70.314773    -17.849837     -3.585564
  H      71.523188    -16.627074     -3.194444
  C      69.606624    -16.324407     -2.207993
  H      68.838403    -16.956071     -1.756628
  H      70.022792    -15.719739     -1.395219
  C      68.978791    -15.408908     -3.259555
  H      69.787180    -14.890744     -3.786215
  H      68.466519    -16.016165     -4.009719
  C      68.000160    -14.351584     -2.723233
  H      68.556320    -13.704593     -2.035122
  C      67.534325    -13.440785     -3.871328
  H      68.435741    -13.101039     -4.397580
  C      66.829490    -14.972037     -1.954360
  H      66.159391    -14.211832     -1.552672
  H      66.245150    -15.626675     -2.601720
  H      67.184400    -15.557184     -1.106218
  C      66.772592    -12.201042     -3.408623
  H      67.351212    -11.649623     -2.665374
  H      66.581845    -11.523843     -4.242206
  H      65.810855    -12.469193     -2.972200
  C      66.652331    -13.775460     -6.061138
  H      66.115464    -14.538639     -6.621784
  H      66.095072    -12.837722     -6.144052
  H      67.634700    -13.632691     -6.524958
  O      66.765543    -14.213867     -4.751779
27
Coordinates from ORCA-job 30 Relaxed Surface Scan Step 22
  C      70.678253    -17.230866     -2.788831
  H      70.971350    -18.004221     -2.075925
  H      70.406341    -17.727590     -3.723468
  H      71.557331    -16.612934     -2.987645
  C      69.519969    -16.393956     -2.253346
  H      68.686161    -17.058304     -2.014522
  H      69.820093    -15.922879     -1.311389
  C      69.056580    -15.327451     -3.245402
  H      69.940926    -14.783570     -3.594521
  H      68.630503    -15.823236     -4.120740
  C      68.039549    -14.298187     -2.716186
  H      68.574831    -13.609060     -2.054327
  C      67.532214    -13.430076     -3.880258
  H      68.415936    -13.095224     -4.439140
  C      66.899414    -14.937825     -1.916653
  H      66.232665    -14.188842     -1.489666
  H      66.305302    -15.601117     -2.545915
  H      67.287481    -15.517289     -1.079938
  C      66.764425    -12.188325     -3.433959
  H      67.358370    -11.600122     -2.732225
  H      66.529839    -11.544930     -4.282969
  H      65.824863    -12.459221     -2.952931
  C      66.609077    -13.845156     -6.038857
  H      66.061395    -14.627770     -6.560924
  H      66.048697    -12.911315     -6.142052
  H      67.580964    -13.717635     -6.528486
  O      66.751249    -14.237755     -4.717774
27
Coordinates from ORCA-job 30 Relaxed Surface Scan Step 23
  C      70.630207    -17.258282     -2.832559
  H      70.827910    -18.119328     -2.190906
  H      70.428483    -17.634075     -3.838694
  H      71.545692    -16.663439     -2.880394
  C      69.458513    -16.433998     -2.306956
  H      68.580392    -17.079329     -2.224853
  H      69.688177    -16.088877     -1.293853
  C      69.129599    -15.244856     -3.209018
  H      70.059731    -14.694412     -3.388506
  H      68.802464    -15.633842     -4.175609
  C      68.071423    -14.241897     -2.694716
  H      68.582230    -13.513506     -2.058734
  C      67.530199    -13.420685     -3.877388
  H      68.400274    -13.072590     -4.449856
  C      66.955929    -14.888590     -1.865424
  H      66.312207    -14.140650     -1.401951
  H      66.335003    -15.541743     -2.478833
  H      67.369762    -15.478850     -1.049297
  C      66.725119    -12.193629     -3.457517
  H      67.306808    -11.564487     -2.781465
  H      66.457225    -11.584461     -4.321758
  H      65.801950    -12.482742     -2.955746
  C      66.615042    -13.922614     -6.020707
  H      66.081825    -14.731372     -6.517270
  H      66.034930    -13.004019     -6.148557
  H      67.582188    -13.789198     -6.518121
  O      66.770496    -14.273383     -4.689358
27
Coordinates from ORCA-job 30 Relaxed Surface Scan Step 24
  C      70.569540    -17.286330     -2.899863
  H      70.682368    -18.216952     -2.340027
  H      70.423883    -17.547465     -3.950942
  H      71.511756    -16.737837     -2.824074
  C      69.401415    -16.460267     -2.369047
  H      68.489558    -17.060605     -2.420344
  H      69.572439    -16.240252     -1.311176
  C      69.199401    -15.166613     -3.157654
  H      70.155279    -14.630984     -3.167965
  H      68.983576    -15.443573     -4.191176
  C      68.103446    -14.184149     -2.665879
  H      68.592645    -13.421522     -2.056045
  C      67.532682    -13.414139     -3.868576
  H      68.389925    -13.044355     -4.447014
  C      67.007602    -14.827135     -1.806834
  H      66.379923    -14.072139     -1.331821
  H      66.368658    -15.481905     -2.399207
  H      67.438994    -15.413509     -0.997259
  C      66.676052    -12.211596     -3.481352
  H      67.227475    -11.544473     -2.816403
  H      66.389829    -11.633274     -4.360782
  H      65.761879    -12.526254     -2.978499
  C      66.642308    -14.005499     -5.999611
  H      66.144174    -14.847638     -6.476725
  H      66.023633    -13.115698     -6.148455
  H      67.603003    -13.842580     -6.500783
  O      66.812336    -14.318113     -4.660537
