27
Coordinates from ORCA-job 31 Relaxed Surface Scan Step 1
  C      70.704692    -16.738590     -2.757945
  H      71.117129    -17.333155     -3.575842
  H      71.444141    -15.976556     -2.497632
  H      70.593732    -17.397867     -1.893485
  C      69.370914    -16.108636     -3.150978
  H      69.523234    -15.505999     -4.050430
  H      68.660790    -16.891528     -3.420567
  C      68.800352    -15.224362     -2.039845
  H      68.842612    -15.781476     -1.098759
  H      69.472841    -14.369493     -1.912295
  C      67.354914    -14.700353     -2.185799
  H      67.294952    -13.840855     -1.508597
  C      67.017029    -14.158333     -3.587197
  H      67.903667    -13.653489     -3.984726
  C      66.332437    -15.738447     -1.710489
  H      65.309111    -15.369604     -1.787116
  H      66.394520    -16.653425     -2.297792
  H      66.512506    -15.989974     -0.663397
  O      66.717097    -15.244570     -4.420705
  C      66.841731    -15.059234     -5.787879
  H      66.674042    -16.020768     -6.269819
  H      66.111134    -14.348355     -6.184303
  H      67.843378    -14.707383     -6.058585
  C      65.876727    -13.142421     -3.567589
  H      66.134640    -12.291285     -2.935298
  H      65.673051    -12.757015     -4.567275
  H      64.956835    -13.588446     -3.188986
27
Coordinates from ORCA-job 31 Relaxed Surface Scan Step 2
  C      70.726258    -16.714273     -2.801210
  H      71.231700    -17.132952     -3.673980
  H      71.436811    -16.059575     -2.289961
  H      70.494857    -17.540758     -2.124896
  C      69.463228    -15.957825     -3.205096
  H      69.744328    -15.181479     -3.922884
  H      68.779785    -16.633006     -3.720100
  C      68.771717    -15.311806     -2.001462
  H      68.696884    -16.065414     -1.213008
  H      69.443905    -14.541269     -1.611569
  C      67.355213    -14.697702     -2.177738
  H      67.344091    -13.807717     -1.540138
  C      67.022555    -14.195797     -3.595863
  H      67.916734    -13.736789     -4.025853
  C      66.280010    -15.658770     -1.656837
  H      65.274910    -15.247759     -1.754291
  H      66.304571    -16.601750     -2.202223
  H      66.446672    -15.870564     -0.598897
  O      66.670388    -15.299554     -4.385469
  C      66.783626    -15.167112     -5.760025
  H      66.561793    -16.135064     -6.205938
  H      66.082421    -14.435317     -6.171126
  H      67.797108    -14.874487     -6.055576
  C      65.920701    -13.137377     -3.599826
  H      66.218657    -12.274377     -3.002165
  H      65.720762    -12.780791     -4.610852
  H      64.988523    -13.532335     -3.196347
27
Coordinates from ORCA-job 31 Relaxed Surface Scan Step 3
  C      70.809819    -16.600588     -2.873276
  H      71.406772    -16.811977     -3.762921
  H      71.434989    -16.028593     -2.183004
  H      70.580450    -17.556134     -2.395216
  C      69.535772    -15.840765     -3.232204
  H      69.809955    -14.911557     -3.737153
  H      68.959427    -16.419379     -3.953439
  C      68.670646    -15.554239     -2.001181
  H      68.414979    -16.518427     -1.555401
  H      69.297729    -15.055803     -1.255887
  C      67.362716    -14.717830     -2.165708
  H      67.502464    -13.792594     -1.601067
  C      67.057602    -14.259060     -3.600682
  H      67.977056    -13.830781     -4.017542
  C      66.181271    -15.456301     -1.527349
  H      65.273940    -14.851584     -1.511893
  H      65.965170    -16.377404     -2.068685
  H      66.416071    -15.715376     -0.492851
  O      66.693542    -15.383081     -4.354346
  C      66.740350    -15.276036     -5.735334
  H      66.565908    -16.266867     -6.151181
  H      65.974513    -14.602727     -6.130373
  H      67.718640    -14.923483     -6.080647
  C      65.984647    -13.171979     -3.664492
  H      66.251050    -12.332595     -3.020155
  H      65.880113    -12.782563     -4.677844
  H      65.012615    -13.553895     -3.353498
27
Coordinates from ORCA-job 31 Relaxed Surface Scan Step 4
  C      70.882063    -16.499156     -2.839819
  H      71.605127    -16.487084     -3.658043
  H      71.371538    -16.078825     -1.957890
  H      70.648633    -17.543983     -2.620388
  C      69.622764    -15.718136     -3.202118
  H      69.888378    -14.684644     -3.441234
  H      69.199070    -16.127717     -4.120277
  C      68.557184    -15.768780     -2.102660
  H      68.146748    -16.781524     -2.077258
  H      69.040162    -15.629364     -1.130202
  C      67.396097    -14.749208     -2.189810
  H      67.711421    -13.837955     -1.671959
  C      67.075334    -14.315464     -3.626664
  H      68.010179    -13.939838     -4.066105
  C      66.176579    -15.289834     -1.437525
  H      65.400463    -14.534077     -1.310055
  H      65.742612    -16.138796     -1.966465
  H      66.468819    -15.625441     -0.440016
  O      66.662875    -15.453234     -4.333299
  C      66.626481    -15.376515     -5.716616
  H      66.457487    -16.381070     -6.100642
  H      65.819611    -14.733792     -6.079773
  H      67.572437    -15.004556     -6.126186
  C      66.043724    -13.191613     -3.705843
  H      66.333206    -12.361425     -3.059281
  H      65.962915    -12.799952     -4.720623
  H      65.056301    -13.539637     -3.402575
27
Coordinates from ORCA-job 31 Relaxed Surface Scan Step 5
  C      70.898135    -16.525940     -2.799554
  H      71.722629    -16.376291     -3.499701
  H      71.281143    -16.345383     -1.792286
  H      70.601953    -17.576254     -2.856241
  C      69.723914    -15.606152     -3.120725
  H      70.054389    -14.563142     -3.074099
  H      69.414708    -15.776248     -4.154002
  C      68.527739    -15.823492     -2.192357
  H      68.080992    -16.795491     -2.415621
  H      68.887422    -15.886827     -1.160315
  C      67.430155    -14.745441     -2.229559
  H      67.833985    -13.844745     -1.753791
  C      67.055452    -14.335984     -3.661279
  H      67.970360    -13.974883     -4.148086
  C      66.225056    -15.205089     -1.403551
  H      65.500717    -14.404451     -1.249229
  H      65.714780    -16.035086     -1.893477
  H      66.549155    -15.542845     -0.416993
  O      66.615007    -15.487111     -4.327956
  C      66.532683    -15.440763     -5.710489
  H      66.352374    -16.453529     -6.066783
  H      65.713693    -14.806230     -6.060929
  H      67.464205    -15.077530     -6.159121
  C      66.026059    -13.209509     -3.725894
  H      66.337211    -12.372184     -3.098705
  H      65.917443    -12.831072     -4.743151
  H      65.046847    -13.549947     -3.389438
27
Coordinates from ORCA-job 31 Relaxed Surface Scan Step 6
  C      70.910770    -16.564093     -2.781080
  H      71.818570    -16.322637     -3.337808
  H      71.179838    -16.639395     -1.724762
  H      70.574562    -17.551375     -3.106840
  C      69.827254    -15.512958     -3.004629
  H      70.203523    -14.534133     -2.688260
  H      69.632068    -15.434049     -4.076512
  C      68.531926    -15.831291     -2.258105
  H      68.105060    -16.754973     -2.655396
  H      68.780492    -16.033333     -1.211547
  C      67.452739    -14.736878     -2.272999
  H      67.891274    -13.833227     -1.834136
  C      67.024797    -14.351340     -3.698210
  H      67.919648    -14.015150     -4.234001
  C      66.269387    -15.162273     -1.397591
  H      65.547294    -14.356672     -1.261207
  H      65.747872    -16.012659     -1.838355
  H      66.616966    -15.456099     -0.405345
  O      66.536472    -15.506655     -4.322428
  C      66.428863    -15.496942     -5.703823
  H      66.203697    -16.511866     -6.026874
  H      65.627742    -14.841846     -6.057984
  H      67.364468    -15.182636     -6.179964
  C      66.011819    -13.208913     -3.745587
  H      66.359762    -12.364385     -3.148032
  H      65.870500    -12.849469     -4.765757
  H      65.040843    -13.526372     -3.366099
27
Coordinates from ORCA-job 31 Relaxed Surface Scan Step 7
  C      70.949271    -16.533108     -2.773763
  H      71.919628    -16.197279     -3.145174
  H      71.088515    -16.876340     -1.745802
  H      70.645807    -17.396372     -3.370863
  C      69.910415    -15.417629     -2.849289
  H      70.262665    -14.558552     -2.268874
  H      69.837312    -15.075937     -3.884710
  C      68.538609    -15.848551     -2.328685
  H      68.173917    -16.699319     -2.909133
  H      68.667504    -16.211187     -1.304584
  C      67.454948    -14.757018     -2.315721
  H      67.899530    -13.850924     -1.889049
  C      66.993341    -14.384056     -3.734888
  H      67.884971    -14.152867     -4.327915
  C      66.288439    -15.180785     -1.417257
  H      65.525991    -14.405476     -1.337769
  H      65.811577    -16.082293     -1.802340
  H      66.645202    -15.389101     -0.406814
  O      66.367611    -15.508699     -4.289922
  C      66.262555    -15.571520     -5.669923
  H      65.879804    -16.556996     -5.929520
  H      65.575018    -14.822663     -6.073749
  H      67.236068    -15.440145     -6.155557
  C      66.085940    -13.156256     -3.781417
  H      66.553233    -12.314822     -3.266777
  H      65.897659    -12.845386     -4.809921
  H      65.122675    -13.358341     -3.313911
27
Coordinates from ORCA-job 31 Relaxed Surface Scan Step 8
  C      70.980400    -16.489838     -2.789243
  H      71.981448    -16.097181     -2.978832
  H      71.023648    -17.076596     -1.868443
  H      70.731806    -17.174168     -3.603964
  C      69.954929    -15.365789     -2.680218
  H      70.259362    -14.677014     -1.885253
  H      69.964556    -14.782516     -3.605631
  C      68.541485    -15.867500     -2.385263
  H      68.253342    -16.624243     -3.119132
  H      68.559495    -16.378765     -1.418660
  C      67.461222    -14.770849     -2.350659
  H      67.919583    -13.862108     -1.945282
  C      66.977775    -14.416447     -3.767963
  H      67.863543    -14.272307     -4.397045
  C      66.306139    -15.171470     -1.427521
  H      65.537656    -14.399951     -1.370376
  H      65.833238    -16.089824     -1.774969
  H      66.674777    -15.339641     -0.413754
  O      66.257701    -15.513031     -4.260628
  C      66.130016    -15.633431     -5.634877
  H      65.648769    -16.587761     -5.841365
  H      65.514937    -14.841026     -6.071136
  H      67.105811    -15.623332     -6.133365
  C      66.154537    -13.132115     -3.830475
  H      66.707965    -12.300130     -3.391672
  H      65.922697    -12.862268     -4.861611
  H      65.211372    -13.242318     -3.295992
27
Coordinates from ORCA-job 31 Relaxed Surface Scan Step 9
  C      71.021210    -16.472596     -2.738970
  H      72.035262    -16.068345     -2.762457
  H      70.974103    -17.202354     -1.926932
  H      70.856306    -17.011270     -3.675250
  C      69.987165    -15.367849     -2.548376
  H      70.208616    -14.821562     -1.625182
  H      70.081228    -14.641347     -3.362036
  C      68.551173    -15.885627     -2.476907
  H      68.345919    -16.527118     -3.337033
  H      68.464445    -16.531449     -1.599124
  C      67.485036    -14.771229     -2.406326
  H      67.975698    -13.863788     -2.037445
  C      66.952909    -14.428998     -3.808119
  H      67.818511    -14.313435     -4.470923
  C      66.362768    -15.133970     -1.429527
  H      65.614465    -14.344807     -1.348387
  H      65.855969    -16.045839     -1.744871
  H      66.772454    -15.298796     -0.430906
  O      66.194176    -15.518829     -4.254897
  C      66.018635    -15.663438     -5.621512
  H      65.502751    -16.606678     -5.792092
  H      65.413795    -14.861789     -6.055250
  H      66.977800    -15.693396     -6.150630
  C      66.152844    -13.130030     -3.862080
  H      66.741842    -12.300839     -3.466280
  H      65.880748    -12.877140     -4.887645
  H      65.232379    -13.209099     -3.284169
27
Coordinates from ORCA-job 31 Relaxed Surface Scan Step 10
  C      71.054190    -16.499723     -2.624093
  H      72.069190    -16.117431     -2.497963
  H      70.906418    -17.296298     -1.890804
  H      70.990175    -16.950810     -3.617322
  C      70.019033    -15.393089     -2.452658
  H      70.137616    -14.936259     -1.464375
  H      70.215614    -14.597986     -3.179649
  C      68.578114    -15.878782     -2.604006
  H      68.465112    -16.387028     -3.563965
  H      68.388550    -16.644036     -1.847008
  C      67.525324    -14.751027     -2.483917
  H      68.043646    -13.842696     -2.159202
  C      66.917308    -14.420953     -3.855950
  H      67.751229    -14.284921     -4.556294
  C      66.462706    -15.083690     -1.432745
  H      65.755351    -14.266319     -1.286993
  H      65.899270    -15.971075     -1.721154
  H      66.936598    -15.279341     -0.468495
  O      66.165195    -15.528919     -4.267104
  C      65.925628    -15.676803     -5.623646
  H      65.422849    -16.631111     -5.769953
  H      65.282676    -14.888449     -6.025780
  H      66.858035    -15.685359     -6.199307
  C      66.084535    -13.141769     -3.871882
  H      66.666663    -12.300422     -3.491799
  H      65.769497    -12.889642     -4.885284
  H      65.187685    -13.247681     -3.261981
27
Coordinates from ORCA-job 31 Relaxed Surface Scan Step 11
  C      71.058004    -16.552566     -2.502605
  H      72.062158    -16.214705     -2.238376
  H      70.807715    -17.391840     -1.849187
  H      71.094338    -16.932216     -3.526685
  C      70.039883    -15.425280     -2.367740
  H      70.055829    -15.043199     -1.341909
  H      70.342625    -14.586688     -3.003665
  C      68.616129    -15.844028     -2.733511
  H      68.605000    -16.211634     -3.761553
  H      68.329465    -16.702821     -2.121288
  C      67.572910    -14.712700     -2.566956
  H      68.106769    -13.798597     -2.289986
  C      66.883075    -14.403577     -3.903281
  H      67.679810    -14.225427     -4.638882
  C      66.584300    -15.026307     -1.440484
  H      65.917851    -14.188682     -1.230148
  H      65.972658    -15.892399     -1.694181
  H      67.124484    -15.250416     -0.517994
  O      66.163859    -15.543305     -4.284631
  C      65.857503    -15.692413     -5.627535
  H      65.397733    -16.670586     -5.756687
  H      65.153107    -14.935605     -5.984924
  H      66.755788    -15.647223     -6.253527
  C      65.992996    -13.164086     -3.870494
  H      66.548724    -12.302045     -3.497155
  H      65.631358    -12.912288     -4.868324
  H      65.124136    -13.320986     -3.231623
27
Coordinates from ORCA-job 31 Relaxed Surface Scan Step 12
  C      71.035312    -16.612637     -2.401357
  H      72.014444    -16.335834     -2.005146
  H      70.689248    -17.489262     -1.848502
  H      71.172028    -16.913321     -3.443077
  C      70.043644    -15.459786     -2.285269
  H      69.957230    -15.161278     -1.236008
  H      70.443686    -14.585521     -2.809309
  C      68.661567    -15.787679     -2.851067
  H      68.761155    -16.013400     -3.914838
  H      68.291919    -16.711632     -2.399099
  C      67.622447    -14.662871     -2.645830
  H      68.161513    -13.738952     -2.417861
  C      66.854561    -14.384851     -3.945057
  H      67.608522    -14.164455     -4.715005
  C      66.708763    -14.966380     -1.455039
  H      66.075786    -14.117483     -1.192615
  H      66.064046    -15.818571     -1.672155
  H      67.305515    -15.209490     -0.573179
  O      66.176007    -15.558391     -4.296965
  C      65.809229    -15.717632     -5.623436
  H      65.398333    -16.719266     -5.736554
  H      65.046355    -14.999474     -5.938096
  H      66.670007    -15.619292     -6.294374
  C      65.906661    -13.191433     -3.863882
  H      66.433591    -12.306226     -3.503018
  H      65.493548    -12.948803     -4.843857
  H      65.073088    -13.397698     -3.192732
27
Coordinates from ORCA-job 31 Relaxed Surface Scan Step 13
  C      71.006708    -16.661518     -2.348447
  H      71.942808    -16.462943     -1.822534
  H      70.589978    -17.587973     -1.946148
  H      71.248108    -16.838237     -3.399546
  C      70.026797    -15.502722     -2.193854
  H      69.836394    -15.333090     -1.130322
  H      70.494867    -14.583719     -2.561356
  C      68.710089    -15.720886     -2.940129
  H      68.927448    -15.806389     -4.007735
  H      68.278018    -16.683951     -2.656837
  C      67.667439    -14.609901     -2.709077
  H      68.204351    -13.674020     -2.526700
  C      66.836289    -14.372220     -3.977520
  H      67.548260    -14.133436     -4.780653
  C      66.809758    -14.905501     -1.474862
  H      66.190544    -14.053844     -1.189834
  H      66.153824    -15.756960     -1.659131
  H      67.441296    -15.145220     -0.617401
  O      66.185510    -15.572364     -4.290312
  C      65.769012    -15.757371     -5.598619
  H      65.391906    -16.774712     -5.686532
  H      64.966749    -15.071269     -5.885731
  H      66.596179    -15.632988     -6.306436
  C      65.851113    -13.211712     -3.866906
  H      66.360465    -12.306185     -3.532028
  H      65.392720    -12.990859     -4.831795
  H      65.051579    -13.441627     -3.162883
27
Coordinates from ORCA-job 31 Relaxed Surface Scan Step 14
  C      70.995868    -16.684000     -2.350747
  H      71.868313    -16.587880     -1.701192
  H      70.554596    -17.667122     -2.170297
  H      71.349138    -16.666280     -3.384746
  C      69.986140    -15.569851     -2.091199
  H      69.688000    -15.599078     -1.040310
  H      70.473814    -14.600698     -2.238318
  C      68.756839    -15.654445     -2.996659
  H      69.095748    -15.595853     -4.035368
  H      68.286536    -16.635422     -2.894415
  C      67.701470    -14.562683     -2.750621
  H      68.229167    -13.613737     -2.605198
  C      66.828572    -14.369986     -4.000177
  H      67.509798    -14.152956     -4.833786
  C      66.874080    -14.847047     -1.492698
  H      66.232156    -14.005905     -1.228161
  H      66.241260    -15.722571     -1.641314
  H      67.519403    -15.037398     -0.634545
  O      66.175499    -15.582625     -4.256256
  C      65.722279    -15.809969     -5.545523
  H      65.348682    -16.831390     -5.591134
  H      64.907970    -15.137079     -5.830009
  H      66.527738    -15.703487     -6.280716
  C      65.839244    -13.212142     -3.894630
  H      66.352637    -12.294021     -3.603010
  H      65.350992    -13.023506     -4.851664
  H      65.062269    -13.424492     -3.160635
27
Coordinates from ORCA-job 31 Relaxed Surface Scan Step 15
  C      71.012070    -16.664381     -2.375682
  H      71.791861    -16.702561     -1.612325
  H      70.609201    -17.673762     -2.488893
  H      71.486924    -16.391071     -3.321176
  C      69.915143    -15.672976     -1.997734
  H      69.507188    -15.955026     -1.024662
  H      70.356389    -14.679360     -1.866469
  C      68.797712    -15.599599     -3.038918
  H      69.255130    -15.399862     -4.013591
  H      68.313255    -16.574954     -3.127424
  C      67.724503    -14.530064     -2.779851
  H      68.238146    -13.569448     -2.658146
  C      66.825756    -14.376113     -4.017980
  H      67.489532    -14.221636     -4.878380
  C      66.920838    -14.806867     -1.505375
  H      66.196295    -14.017133     -1.304901
  H      66.376747    -15.748030     -1.590153
  H      67.573136    -14.866515     -0.634208
  O      66.131371    -15.579874     -4.197707
  C      65.650988    -15.862175     -5.466166
  H      65.240151    -16.870092     -5.449092
  H      64.857233    -15.176762     -5.777520
  H      66.448637    -15.826666     -6.216531
  C      65.871516    -13.186189     -3.949471
  H      66.417297    -12.268419     -3.723235
  H      65.362040    -13.036700     -4.902350
  H      65.109151    -13.335384     -3.185392
27
Coordinates from ORCA-job 31 Relaxed Surface Scan Step 16
  C      71.018197    -16.645616     -2.371021
  H      71.692813    -16.828514     -1.532193
  H      70.675699    -17.616019     -2.738670
  H      71.600315    -16.177683     -3.168708
  C      69.840842    -15.768931     -1.954124
  H      69.324104    -16.246720     -1.118657
  H      70.217997    -14.812800     -1.575823
  C      68.855809    -15.518051     -3.095494
  H      69.421316    -15.169151     -3.967128
  H      68.393867    -16.464948     -3.386502
  C      67.745505    -14.494110     -2.807575
  H      68.224857    -13.515238     -2.687441
  C      66.821013    -14.377423     -4.031913
  H      67.463717    -14.296816     -4.916787
  C      66.967711    -14.803505     -1.524494
  H      66.160624    -14.088982     -1.361730
  H      66.526117    -15.799250     -1.568623
  H      67.617312    -14.754169     -0.650617
  O      66.081899    -15.564572     -4.126839
  C      65.578504    -15.910282     -5.370435
  H      65.120989    -16.894043     -5.281696
  H      64.815281    -15.211117     -5.724538
  H      66.370775    -15.964151     -6.125405
  C      65.909248    -13.153428     -4.005342
  H      66.495631    -12.241091     -3.882984
  H      65.350383    -13.060110     -4.937419
  H      65.187682    -13.214900     -3.191171
27
Coordinates from ORCA-job 31 Relaxed Surface Scan Step 17
  C      70.992833    -16.665683     -2.374875
  H      71.560889    -17.008442     -1.507693
  H      70.703359    -17.547902     -2.951223
  H      71.665563    -16.071158     -2.997913
  C      69.768923    -15.858735     -1.951705
  H      69.150761    -16.471422     -1.290504
  H      70.092642    -14.994163     -1.363077
  C      68.925969    -15.398297     -3.139302
  H      69.585738    -14.906674     -3.865677
  H      68.518227    -16.283083     -3.635346
  C      67.766392    -14.432491     -2.824339
  H      68.196283    -13.429947     -2.708761
  C      66.818893    -14.372059     -4.036244
  H      67.441870    -14.348566     -4.936728
  C      67.012686    -14.772761     -1.534374
  H      66.171356    -14.097333     -1.377190
  H      66.619192    -15.788206     -1.565738
  H      67.663034    -14.681491     -0.664483
  O      66.072600    -15.558797     -4.054952
  C      65.555238    -15.971761     -5.271971
  H      65.084495    -16.941562     -5.120744
  H      64.799495    -15.284290     -5.663031
  H      66.341035    -16.082762     -6.027512
  C      65.914690    -13.143080     -4.053251
  H      66.511001    -12.229424     -4.025754
  H      65.309408    -13.111708     -4.960075
  H      65.235635    -13.139822     -3.200866
27
Coordinates from ORCA-job 31 Relaxed Surface Scan Step 18
  C      70.913864    -16.747346     -2.406753
  H      71.361751    -17.268053     -1.557959
  H      70.666974    -17.497033     -3.162583
  H      71.676156    -16.089621     -2.831743
  C      69.676233    -15.961896     -1.982737
  H      68.957964    -16.648291     -1.526440
  H      69.957927    -15.240353     -1.210514
  C      69.001827    -15.255301     -3.157595
  H      69.756445    -14.657703     -3.684696
  H      68.674850    -16.028976     -3.856071
  C      67.796950    -14.331508     -2.841074
  H      68.179634    -13.306306     -2.771735
  C      66.822407    -14.356208     -4.032539
  H      67.425107    -14.328341     -4.946241
  C      67.078070    -14.645763     -1.524418
  H      66.248362    -13.957758     -1.359205
  H      66.673915    -15.656621     -1.523836
  H      67.751464    -14.542591     -0.673916
  O      66.143849    -15.582716     -4.000041
  C      65.621731    -16.058549     -5.191854
  H      65.207693    -17.047188     -5.001737
  H      64.821201    -15.424304     -5.583670
  H      66.394778    -16.149747     -5.963070
  C      65.852028    -13.179574     -4.067604
  H      66.398162    -12.234705     -4.078525
  H      65.230517    -13.208591     -4.963466
  H      65.188351    -13.186577     -3.203308
27
Coordinates from ORCA-job 31 Relaxed Surface Scan Step 19
  C      70.749219    -16.891358     -2.465542
  H      71.056136    -17.572411     -1.669137
  H      70.529835    -17.494087     -3.350260
  H      71.604740    -16.254470     -2.704392
  C      69.538814    -16.061944     -2.045956
  H      68.718599    -16.734295     -1.785489
  H      69.788094    -15.508459     -1.137398
  C      69.083404    -15.105137     -3.148996
  H      69.930776    -14.464755     -3.413353
  H      68.880572    -15.710833     -4.033830
  C      67.847521    -14.196402     -2.873342
  H      68.194206    -13.159089     -2.904750
  C      66.840787    -14.336578     -4.027068
  H      67.404029    -14.214742     -4.960991
  C      67.182507    -14.402911     -1.507622
  H      66.394962    -13.666532     -1.344893
  H      66.735848    -15.392255     -1.424053
  H      67.900931    -14.281035     -0.697396
  O      66.328135    -15.640114     -3.981707
  C      65.791237    -16.161480     -5.147749
  H      65.536555    -17.202985     -4.959668
  H      64.882079    -15.640506     -5.461782
  H      66.509824    -16.124981     -5.974240
  C      65.725262    -13.294722     -4.018379
  H      66.141806    -12.287177     -3.966782
  H      65.126156    -13.353893     -4.928026
  H      65.056174    -13.438469     -3.170529
27
Coordinates from ORCA-job 31 Relaxed Surface Scan Step 20
  C      70.562526    -17.002462     -2.554975
  H      70.727889    -17.809293     -1.837978
  H      70.388830    -17.458937     -3.532506
  H      71.487753    -16.424014     -2.620882
  C      69.386254    -16.125033     -2.136705
  H      68.486997    -16.737147     -2.058746
  H      69.577517    -15.736472     -1.133543
  C      69.150361    -14.966552     -3.109094
  H      70.036401    -14.325831     -3.095866
  H      69.112843    -15.379783     -4.119273
  C      67.887772    -14.084705     -2.891167
  H      68.197817    -13.045136     -3.011620
  C      66.869061    -14.335594     -4.013135
  H      67.394748    -14.147132     -4.961502
  C      67.275479    -14.190336     -1.490146
  H      66.496838    -13.440527     -1.346850
  H      66.833059    -15.169595     -1.312877
  H      68.030357    -14.013921     -0.722852
  O      66.499585    -15.685834     -3.955538
  C      65.961651    -16.256655     -5.097874
  H      65.845683    -17.323180     -4.913508
  H      64.979557    -15.846391     -5.350287
  H      66.621034    -16.124877     -5.963093
  C      65.649884    -13.417870     -3.972332
  H      65.957683    -12.372881     -3.903343
  H      65.049612    -13.521897     -4.877199
  H      65.011014    -13.649564     -3.120438
27
Coordinates from ORCA-job 31 Relaxed Surface Scan Step 21
  C      70.500302    -17.020008     -2.628070
  H      70.561306    -17.926957     -2.022887
  H      70.460754    -17.324742     -3.676881
  H      71.429289    -16.462403     -2.482091
  C      69.282139    -16.183372     -2.247614
  H      68.374462    -16.769660     -2.387636
  H      69.335252    -15.952290     -1.180794
  C      69.193126    -14.882621     -3.050846
  H      70.055130    -14.260971     -2.789444
  H      69.322440    -15.117338     -4.111329
  C      67.906131    -14.036256     -2.892360
  H      68.192315    -12.997452     -3.071464
  C      66.889516    -14.359327     -3.998015
  H      67.409451    -14.200716     -4.954368
  C      67.313526    -14.088472     -1.480590
  H      66.530876    -13.340146     -1.351495
  H      66.883472    -15.064485     -1.258353
  H      68.082582    -13.879120     -0.734555
  O      66.540134    -15.711761     -3.891476
  C      65.994905    -16.326626     -5.007450
  H      65.910809    -17.390483     -4.792795
  H      64.997531    -15.948899     -5.250129
  H      66.633466    -16.201090     -5.888968
  C      65.655547    -13.460121     -3.987081
  H      65.946229    -12.408359     -3.961741
  H      65.051462    -13.609822     -4.882897
  H      65.026055    -13.668125     -3.122000
27
Coordinates from ORCA-job 31 Relaxed Surface Scan Step 22
  C      70.573977    -16.965727     -2.654403
  H      70.586606    -17.955517     -2.193185
  H      70.749913    -17.098553     -3.725031
  H      71.419035    -16.402256     -2.250003
  C      69.250590    -16.251837     -2.392802
  H      68.425769    -16.844939     -2.784784
  H      69.093330    -16.188144     -1.313228
  C      69.217907    -14.846568     -2.999384
  H      70.013463    -14.257363     -2.530972
  H      69.491215    -14.910348     -4.057755
  C      67.904366    -14.042476     -2.884026
  H      68.178301    -13.002268     -3.083062
  C      66.893947    -14.395709     -3.987404
  H      67.435261    -14.341582     -4.941798
  C      67.302731    -14.088056     -1.476150
  H      66.512487    -13.346322     -1.354629
  H      66.879210    -15.066703     -1.253838
  H      68.067569    -13.869972     -0.727564
  O      66.454993    -15.712026     -3.793454
  C      65.881957    -16.365769     -4.872902
  H      65.730567    -17.405757     -4.589114
  H      64.911703    -15.945250     -5.151944
  H      66.533819    -16.338889     -5.753242
  C      65.717172    -13.424279     -4.065071
  H      66.071424    -12.393680     -4.122119
  H      65.110458    -13.609518     -4.952329
  H      65.070440    -13.522112     -3.193135
27
Coordinates from ORCA-job 31 Relaxed Surface Scan Step 23
  C      70.629573    -16.910351     -2.690635
  H      70.615237    -17.969475     -2.424947
  H      71.021753    -16.830806     -3.707929
  H      71.339508    -16.412321     -2.025259
  C      69.236882    -16.295355     -2.581798
  H      68.543829    -16.841236     -3.220921
  H      68.869445    -16.426345     -1.561341
  C      69.228355    -14.809729     -2.948648
  H      69.945411    -14.293439     -2.301362
  H      69.619430    -14.695991     -3.965516
  C      67.891643    -14.046548     -2.855624
  H      68.149251    -13.000830     -3.050713
  C      66.894052    -14.427512     -3.963388
  H      67.461452    -14.505343     -4.900314
  C      67.276175    -14.107087     -1.454062
  H      66.451055    -13.401632     -1.347911
  H      66.893164    -15.100467     -1.227803
  H      68.023081    -13.847337     -0.700489
  O      66.344541    -15.681886     -3.664989
  C      65.785848    -16.404829     -4.706851
  H      65.525887    -17.390472     -4.324834
  H      64.876023    -15.942003     -5.099491
  H      66.491800    -16.530173     -5.535554
  C      65.800135    -13.381061     -4.168049
  H      66.237710    -12.402763     -4.373273
  H      65.162716    -13.637124     -5.015173
  H      65.164252    -13.299506     -3.286455
27
Coordinates from ORCA-job 31 Relaxed Surface Scan Step 24
  C      70.626365    -16.891780     -2.725361
  H      70.595766    -17.982260     -2.676078
  H      71.216228    -16.617349     -3.603889
  H      71.165336    -16.535997     -1.843683
  C      69.220026    -16.302315     -2.793466
  H      68.697280    -16.723743     -3.653489
  H      68.653718    -16.616699     -1.914705
  C      69.236163    -14.775716     -2.895072
  H      69.866330    -14.380137     -2.091625
  H      69.738583    -14.498214     -3.828220
  C      67.888597    -14.030901     -2.829721
  H      68.134378    -12.983840     -3.035893
  C      66.903129    -14.452575     -3.934768
  H      67.483364    -14.632949     -4.848553
  C      67.262207    -14.083349     -1.432587
  H      66.368926    -13.460726     -1.368241
  H      66.974553    -15.096613     -1.159184
  H      67.970822    -13.713648     -0.688324
  O      66.288996    -15.652433     -3.550584
  C      65.743777    -16.444295     -4.548006
  H      65.407605    -17.372046     -4.088489
  H      64.884248    -15.975111     -5.035174
  H      66.482829    -16.688730     -5.319284
  C      65.865184    -13.376651     -4.246849
  H      66.353666    -12.451147     -4.555872
  H      65.207011    -13.685837     -5.059631
  H      65.243119    -13.166560     -3.376580
