23
Coordinates from ORCA-job 7 Relaxed Surface Scan Step 1
  C       3.075504      0.163311      0.457985
  H       3.260003      1.233550      0.356638
  H       3.758188     -0.211464      1.223303
  H       3.347871     -0.312472     -0.487774
  C       1.628710     -0.144846      0.834802
  H       1.551242     -1.212618      1.058416
  H       1.375655      0.375199      1.765736
  C       0.571991      0.195497     -0.230522
  H       0.862795     -0.338779     -1.140359
  C      -0.818050     -0.364016      0.204134
  H      -0.713847     -0.841919      1.181816
  H      -1.099220     -1.170848     -0.478598
  C      -1.997126      0.608031      0.295570
  H      -1.755195      1.426351      0.978654
  H      -2.186289      1.068188     -0.676880
  C       0.578848      1.685941     -0.589929
  H      -0.165678      1.917728     -1.351881
  H       0.377167      2.317848      0.277857
  H       1.547602      1.981581     -0.993223
  C      -3.274648     -0.076403      0.773710
  H      -4.104219      0.631242      0.830206
  H      -3.571134     -0.880924      0.096172
  H      -3.143852     -0.513520      1.766650
23
Coordinates from ORCA-job 7 Relaxed Surface Scan Step 2
  C       3.109782      0.059809      0.295061
  H       3.339681      1.121646      0.196286
  H       3.844317     -0.367961      0.980368
  H       3.261210     -0.405555     -0.682286
  C       1.692464     -0.180586      0.808327
  H       1.570945     -1.250635      1.002003
  H       1.566552      0.314909      1.777272
  C       0.560513      0.264370     -0.131726
  H       0.769358     -0.196261     -1.101756
  C      -0.793273     -0.295447      0.383219
  H      -0.731176     -0.479123      1.459278
  H      -0.947870     -1.283800     -0.060410
  C      -2.038315      0.559407      0.142683
  H      -1.900802      1.531208      0.629679
  H      -2.160714      0.762638     -0.924930
  C       0.550490      1.776715     -0.378008
  H      -0.234404      2.043616     -1.090235
  H       0.380699      2.342555      0.541797
  H       1.498362      2.110737     -0.800805
  C      -3.310215     -0.095120      0.673196
  H      -4.182309      0.538933      0.501415
  H      -3.496561     -1.054347      0.184131
  H      -3.242417     -0.281049      1.747923
23
Coordinates from ORCA-job 7 Relaxed Surface Scan Step 3
  C       3.100395     -0.032695      0.146084
  H       3.379010      1.016187      0.034995
  H       3.867047     -0.507627      0.761579
  H       3.140608     -0.493908     -0.843944
  C       1.721370     -0.202401      0.778837
  H       1.554567     -1.267884      0.962822
  H       1.711455      0.276366      1.764003
  C       0.542443      0.331968     -0.049756
  H       0.641820     -0.095535     -1.053766
  C      -0.782583     -0.179251      0.549358
  H      -0.753132     -0.081506      1.639786
  H      -0.849222     -1.255052      0.358133
  C      -2.055934      0.498394      0.043705
  H      -2.039286      1.554252      0.332412
  H      -2.077608      0.478958     -1.050770
  C       0.571907      1.854731     -0.210990
  H      -0.218910      2.187754     -0.886985
  H       0.431251      2.361923      0.748137
  H       1.519718      2.193834     -0.629780
  C      -3.327229     -0.149246      0.583852
  H      -4.218823      0.366073      0.221077
  H      -3.401329     -1.195470      0.277588
  H      -3.351217     -0.123205      1.676107
23
Coordinates from ORCA-job 7 Relaxed Surface Scan Step 4
  C       3.071683     -0.081504      0.054433
  H       3.392395      0.959772      0.002907
  H       3.840905     -0.629855      0.601911
  H       3.050476     -0.473855     -0.965450
  C       1.713520     -0.239233      0.734328
  H       1.511819     -1.307303      0.854120
  H       1.765322      0.171172      1.748714
  C       0.524869      0.397073     -0.004658
  H       0.533822      0.010516     -1.031317
  C      -0.792752     -0.053451      0.645256
  H      -0.812027      0.283056      1.688463
  H      -0.796939     -1.147163      0.685109
  C      -2.072923      0.407191     -0.052589
  H      -2.151467      1.496074     -0.011143
  H      -2.021247      0.144911     -1.114353
  C       0.642366      1.922551     -0.081918
  H      -0.161982      2.357307     -0.675962
  H       0.599166      2.368661      0.916126
  H       1.580757      2.231490     -0.542876
  C      -3.332681     -0.201754      0.556200
  H      -4.230114      0.152010      0.044745
  H      -3.320251     -1.292194      0.487879
  H      -3.428399      0.061188      1.612557
23
Coordinates from ORCA-job 7 Relaxed Surface Scan Step 5
  C       3.054521     -0.059771      0.010763
  H       3.391496      0.970839      0.129523
  H       3.813088     -0.702579      0.461837
  H       3.029544     -0.280623     -1.059526
  C       1.692859     -0.303255      0.656860
  H       1.481685     -1.375590      0.623176
  H       1.743241     -0.040697      1.719486
  C       0.510440      0.439567      0.014014
  H       0.457579      0.125705     -1.035797
  C      -0.809041      0.025986      0.689671
  H      -0.908228      0.562444      1.640431
  H      -0.757731     -1.035750      0.948458
  C      -2.068133      0.243734     -0.150340
  H      -2.154127      1.291596     -0.445977
  H      -1.976554     -0.324975     -1.080997
  C       0.708308      1.958867      0.039228
  H      -0.158458      2.487275     -0.357480
  H       0.868729      2.311146      1.062277
  H       1.568614      2.265746     -0.556387
  C      -3.346579     -0.174284      0.570078
  H      -4.224627     -0.020963     -0.060504
  H      -3.318351     -1.230885      0.847368
  H      -3.491959      0.403128      1.486320
23
Coordinates from ORCA-job 7 Relaxed Surface Scan Step 6
  C       3.018752     -0.095016     -0.065324
  H       3.402190      0.911056      0.110089
  H       3.762070     -0.796780      0.318256
  H       2.953456     -0.242342     -1.146544
  C       1.667084     -0.324788      0.605754
  H       1.407347     -1.382734      0.509197
  H       1.758074     -0.135178      1.681178
  C       0.501078      0.507347      0.049048
  H       0.404215      0.263805     -1.015846
  C      -0.825190      0.123908      0.740583
  H      -1.010664      0.809550      1.574696
  H      -0.733168     -0.870567      1.186323
  C      -2.043707      0.115283     -0.183046
  H      -2.136877      1.076921     -0.693317
  H      -1.883775     -0.626427     -0.971837
  C       0.768872      2.012435      0.154387
  H      -0.099318      2.596163     -0.152519
  H       1.002690      2.292511      1.185496
  H       1.604387      2.324367     -0.473320
  C      -3.348789     -0.195113      0.542891
  H      -4.192884     -0.211826     -0.149475
  H      -3.305787     -1.169230      1.036323
  H      -3.563739      0.553317      1.309492
23
Coordinates from ORCA-job 7 Relaxed Surface Scan Step 7
  C       2.962718     -0.159192     -0.142337
  H       3.412868      0.815607      0.050532
  H       3.674113     -0.916778      0.192533
  H       2.852255     -0.266255     -1.224604
  C       1.622808     -0.328288      0.568852
  H       1.292151     -1.363676      0.445317
  H       1.761628     -0.184471      1.646157
  C       0.494195      0.594409      0.082400
  H       0.370513      0.413673     -0.991678
  C      -0.845476      0.246723      0.776629
  H      -1.113705      1.041686      1.479795
  H      -0.727284     -0.655635      1.383052
  C      -2.010539      0.026545     -0.188465
  H      -2.127999      0.904790     -0.829481
  H      -1.764700     -0.802570     -0.859543
  C       0.839719      2.076888      0.254314
  H       0.002728      2.711690     -0.040953
  H       1.071211      2.304433      1.298807
  H       1.698323      2.371573     -0.350241
  C      -3.332458     -0.266476      0.513088
  H      -4.135859     -0.430406     -0.207909
  H      -3.260015     -1.160542      1.137286
  H      -3.630876      0.562931      1.158933
23
Coordinates from ORCA-job 7 Relaxed Surface Scan Step 8
  C       2.889549     -0.230586     -0.213481
  H       3.409426      0.708317     -0.017659
  H       3.558835     -1.039973      0.085079
  H       2.739411     -0.308508     -1.293397
  C       1.563530     -0.324237      0.536573
  H       1.156856     -1.330588      0.398565
  H       1.744665     -0.219271      1.611938
  C       0.488693      0.687236      0.108435
  H       0.354329      0.567894     -0.972197
  C      -0.867539      0.376699      0.789916
  H      -1.211779      1.249829      1.351454
  H      -0.737082     -0.414309      1.534192
  C      -1.967278     -0.041690     -0.185772
  H      -2.115227      0.755991     -0.921156
  H      -1.632273     -0.916166     -0.752810
  C       0.911236      2.139240      0.349670
  H       0.123350      2.826345      0.032295
  H       1.101849      2.321813      1.411119
  H       1.814045      2.402975     -0.202605
  C      -3.295872     -0.357223      0.492777
  H      -4.053625     -0.650420     -0.236622
  H      -3.190546     -1.176174      1.208579
  H      -3.678234      0.509465      1.037589
23
Coordinates from ORCA-job 7 Relaxed Surface Scan Step 9
  C       2.810561     -0.291646     -0.276135
  H       3.389206      0.612430     -0.081045
  H       3.437594     -1.142851     -0.003200
  H       2.631977     -0.345862     -1.353082
  C       1.498213     -0.317049      0.502981
  H       1.024632     -1.291792      0.352003
  H       1.709322     -0.249882      1.575797
  C       0.483777      0.773286      0.123506
  H       0.353046      0.717663     -0.962154
  C      -0.889907      0.496730      0.778207
  H      -1.299744      1.420693      1.193910
  H      -0.760669     -0.172458      1.634680
  C      -1.918697     -0.102067     -0.180559
  H      -2.091908      0.608423     -0.996810
  H      -1.504871     -1.002850     -0.644925
  C       0.976001      2.187066      0.444449
  H       0.247503      2.928811      0.105564
  H       1.113298      2.322184      1.521135
  H       1.923987      2.415022     -0.044453
  C      -3.247902     -0.441454      0.485335
  H      -3.958503     -0.852259     -0.234713
  H      -3.116033     -1.180419      1.279442
  H      -3.704566      0.444940      0.932549
23
Coordinates from ORCA-job 7 Relaxed Surface Scan Step 10
  C       2.744596     -0.327368     -0.331083
  H       3.362774      0.548685     -0.129463
  H       3.338623     -1.208125     -0.078829
  H       2.551605     -0.357128     -1.406419
  C       1.440780     -0.310342      0.462871
  H       0.921380     -1.257520      0.292271
  H       1.666402     -0.281963      1.534408
  C       0.479759      0.841277      0.126149
  H       0.363195      0.853296     -0.962595
  C      -0.911285      0.592309      0.744687
  H      -1.373481      1.545251      1.014009
  H      -0.795432      0.048813      1.688572
  C      -1.872488     -0.166166     -0.170557
  H      -2.052000      0.439905     -1.065804
  H      -1.402715     -1.090893     -0.518902
  C       1.027111      2.210383      0.538675
  H       0.356495      3.005991      0.202523
  H       1.117605      2.286882      1.626034
  H       2.009253      2.408885      0.107916
  C      -3.206649     -0.497232      0.490259
  H      -3.872955     -1.017421     -0.200842
  H      -3.067874     -1.139296      1.363474
  H      -3.718382      0.408437      0.825129
23
Coordinates from ORCA-job 7 Relaxed Surface Scan Step 11
  C       2.714879     -0.321221     -0.377811
  H       3.349732      0.532022     -0.134876
  H       3.288278     -1.224348     -0.159133
  H       2.529898     -0.301306     -1.454754
  C       1.404601     -0.311431      0.406315
  H       0.869892     -1.238815      0.188119
  H       1.622021     -0.337102      1.479632
  C       0.476450      0.880327      0.117901
  H       0.373771      0.961481     -0.970172
  C      -0.928235      0.648278      0.703564
  H      -1.428709      1.612031      0.831975
  H      -0.831359      0.230161      1.711989
  C      -1.834847     -0.248488     -0.140079
  H      -1.979673      0.219877     -1.119310
  H      -1.346028     -1.207211     -0.332042
  C       1.058549      2.203409      0.623952
  H       0.419427      3.041416      0.335880
  H       1.137770      2.204691      1.714864
  H       2.052036      2.398112      0.218592
  C      -3.195562     -0.502177      0.501592
  H      -3.824184     -1.126371     -0.136659
  H      -3.091753     -1.010532      1.463273
  H      -3.730637      0.433856      0.679671
23
Coordinates from ORCA-job 7 Relaxed Surface Scan Step 12
  C       2.727033     -0.272041     -0.402198
  H       3.361048      0.536215     -0.035593
  H       3.276462     -1.204668     -0.258956
  H       2.595400     -0.129591     -1.477835
  C       1.379935     -0.327045      0.315598
  H       0.857379     -1.225655     -0.017338
  H       1.546075     -0.456892      1.390731
  C       0.469504      0.892855      0.098272
  H       0.363430      1.039643     -0.983468
  C      -0.938541      0.668584      0.675175
  H      -1.467516      1.626402      0.678076
  H      -0.851374      0.373683      1.727434
  C      -1.807336     -0.347648     -0.067296
  H      -1.873633     -0.058680     -1.121131
  H      -1.338655     -1.334092     -0.052011
  C       1.076221      2.173549      0.680089
  H       0.432189      3.033194      0.483709
  H       1.197669      2.091642      1.764057
  H       2.054010      2.396589      0.252473
  C      -3.214417     -0.462431      0.512320
  H      -3.811194     -1.191600     -0.039320
  H      -3.187154     -0.779946      1.557572
  H      -3.740217      0.494591      0.472123
23
Coordinates from ORCA-job 7 Relaxed Surface Scan Step 13
  C       2.733041     -0.229463     -0.407156
  H       3.358370      0.505151      0.101593
  H       3.252947     -1.188225     -0.356212
  H       2.673151      0.056777     -1.460429
  C       1.342334     -0.340946      0.214794
  H       0.833935     -1.188090     -0.248587
  H       1.439402     -0.591073      1.277380
  C       0.458557      0.908888      0.075294
  H       0.343554      1.114884     -0.996602
  C      -0.950124      0.697413      0.654232
  H      -1.504225      1.634756      0.540296
  H      -0.871968      0.525749      1.734261
  C      -1.777222     -0.425725      0.027024
  H      -1.762376     -0.322462     -1.062616
  H      -1.325471     -1.395621      0.245684
  C       1.100058      2.143223      0.717272
  H       0.439205      3.008824      0.643869
  H       1.301968      1.972294      1.778656
  H       2.042098      2.412509      0.239140
  C      -3.223789     -0.438089      0.513253
  H      -3.786044     -1.257856      0.061603
  H      -3.275058     -0.559937      1.598046
  H      -3.736026      0.493677      0.261686
23
Coordinates from ORCA-job 7 Relaxed Surface Scan Step 14
  C       2.715628     -0.213030     -0.434754
  H       3.338338      0.471161      0.142914
  H       3.216755     -1.183056     -0.438766
  H       2.691451      0.149258     -1.465861
  C       1.305454     -0.340585      0.138454
  H       0.795254     -1.142595     -0.397311
  H       1.367505     -0.665980      1.183269
  C       0.453360      0.935977      0.061239
  H       0.349789      1.202009     -0.999744
  C      -0.967237      0.743746      0.621257
  H      -1.540990      1.646627      0.381400
  H      -0.918579      0.700437      1.715593
  C      -1.741837     -0.474176      0.115988
  H      -1.650992     -0.544199     -0.971527
  H      -1.296778     -1.389338      0.512807
  C       1.125954      2.112950      0.776149
  H       0.455651      2.971227      0.832772
  H       1.393856      1.842366      1.801523
  H       2.034942      2.439333      0.270192
  C      -3.218049     -0.438520      0.500942
  H      -3.740239     -1.331343      0.151177
  H      -3.342392     -0.386025      1.585451
  H      -3.720525      0.430417      0.069318
23
Coordinates from ORCA-job 7 Relaxed Surface Scan Step 15
  C       2.698522     -0.203119     -0.468705
  H       3.318712      0.442164      0.154737
  H       3.184813     -1.179796     -0.510132
  H       2.701981      0.209718     -1.480937
  C       1.274550     -0.335000      0.068238
  H       0.760765     -1.095843     -0.520981
  H       1.309735     -0.718307      1.094236
  C       0.455695      0.965404      0.044243
  H       0.390203      1.295291     -1.002583
  C      -0.991000      0.798565      0.557318
  H      -1.572139      1.648165      0.174110
  H      -0.997035      0.897373      1.648591
  C      -1.713482     -0.500063      0.196453
  H      -1.564342     -0.734052     -0.859515
  H      -1.267713     -1.332026      0.746809
  C       1.147660      2.072028      0.850077
  H       0.469192      2.903212      1.039265
  H       1.463858      1.693745      1.826474
  H       2.029300      2.468100      0.345287
  C      -3.207448     -0.449929      0.502126
  H      -3.691413     -1.400706      0.269908
  H      -3.387846     -0.236063      1.558594
  H      -3.706251      0.327796     -0.081132
23
Coordinates from ORCA-job 7 Relaxed Surface Scan Step 16
  C       2.692345     -0.187181     -0.513743
  H       3.310635      0.386315      0.177933
  H       3.152212     -1.171745     -0.620080
  H       2.739372      0.305434     -1.488500
  C       1.248873     -0.320033     -0.031298
  H       0.734981     -1.015531     -0.695873
  H       1.243632     -0.786418      0.959332
  C       0.469637      1.004631      0.021817
  H       0.490556      1.429948     -0.990755
  C      -1.025639      0.859852      0.423495
  H      -1.598654      1.589004     -0.165103
  H      -1.142628      1.165013      1.467933
  C      -1.684937     -0.513471      0.281447
  H      -1.512155     -0.925747     -0.712871
  H      -1.217108     -1.216160      0.975259
  C       1.151768      2.004718      0.964097
  H       0.503824      2.855311      1.171418
  H       1.369765      1.532680      1.926748
  H       2.089065      2.388759      0.560578
  C      -3.185152     -0.470832      0.556287
  H      -3.629452     -1.465261      0.480075
  H      -3.393688     -0.091062      1.559586
  H      -3.700933      0.178436     -0.155300
23
Coordinates from ORCA-job 7 Relaxed Surface Scan Step 17
  C       2.699661     -0.154077     -0.585596
  H       3.315743      0.312488      0.183909
  H       3.132597     -1.134191     -0.795680
  H       2.789959      0.447312     -1.493887
  C       1.239468     -0.296276     -0.158535
  H       0.727345     -0.895787     -0.912974
  H       1.193800     -0.873456      0.769435
  C       0.489035      1.035880      0.013820
  H       0.623451      1.581004     -0.925493
  C      -1.049632      0.891845      0.236777
  H      -1.569654      1.387806     -0.587279
  H      -1.325183      1.459666      1.129466
  C      -1.645088     -0.510967      0.387480
  H      -1.467628     -1.098677     -0.516008
  H      -1.149745     -1.045421      1.201809
  C       1.101068      1.901622      1.120703
  H       0.578939      2.858106      1.194579
  H       1.022441      1.405926      2.092936
  H       2.153840      2.120822      0.941053
  C      -3.146152     -0.471929      0.660907
  H      -3.555390     -1.479287      0.760293
  H      -3.368171      0.068512      1.584319
  H      -3.684386      0.025739     -0.149551
23
Coordinates from ORCA-job 7 Relaxed Surface Scan Step 18
  C       2.704973     -0.119338     -0.642498
  H       3.305256      0.278121      0.176847
  H       3.134498     -1.084394     -0.918864
  H       2.824198      0.551114     -1.497413
  C       1.233417     -0.277855     -0.263869
  H       0.728959     -0.793934     -1.084256
  H       1.156521     -0.940088      0.602800
  C       0.494957      1.043495      0.010429
  H       0.690053      1.670832     -0.861870
  C      -1.049412      0.893783      0.118470
  H      -1.508351      1.189130     -0.826396
  H      -1.414725      1.624713      0.845188
  C      -1.609755     -0.479588      0.499064
  H      -1.382830     -1.201920     -0.291521
  H      -1.125565     -0.850049      1.406861
  C       1.043999      1.799608      1.225389
  H       0.598516      2.798193      1.278702
  H       0.812727      1.277092      2.158271
  H       2.125215      1.931974      1.177304
  C      -3.119920     -0.449606      0.717770
  H      -3.503266     -1.441760      0.964400
  H      -3.389869      0.222888      1.535581
  H      -3.643280     -0.105751     -0.177906
23
Coordinates from ORCA-job 7 Relaxed Surface Scan Step 19
  C       2.711610     -0.083201     -0.693920
  H       3.298633      0.278188      0.151549
  H       3.148466     -1.033176     -1.008407
  H       2.840302      0.626475     -1.515032
  C       1.235899     -0.260848     -0.341998
  H       0.735201     -0.722918     -1.197669
  H       1.147906     -0.975174      0.481282
  C       0.497461      1.041978      0.007498
  H       0.727537      1.736977     -0.803337
  C      -1.041485      0.882644      0.033722
  H      -1.439535      1.007890     -0.975319
  H      -1.461580      1.714711      0.606725
  C      -1.589050     -0.430805      0.598456
  H      -1.304314     -1.256051     -0.062045
  H      -1.137305     -0.643437      1.571836
  C       0.995671      1.695743      1.301389
  H       0.553147      2.690770      1.412217
  H       0.724483      1.106369      2.181647
  H       2.078851      1.821660      1.308944
  C      -3.107996     -0.418040      0.745653
  H      -3.477031     -1.373715      1.123402
  H      -3.433579      0.360805      1.439421
  H      -3.596974     -0.230185     -0.213531
23
Coordinates from ORCA-job 7 Relaxed Surface Scan Step 20
  C       2.721806     -0.040496     -0.747526
  H       3.304175      0.295124      0.111858
  H       3.169271     -0.972881     -1.097762
  H       2.842741      0.701562     -1.540650
  C       1.248182     -0.245891     -0.402709
  H       0.746264     -0.671060     -1.277203
  H       1.167556     -0.998386      0.386948
  C       0.500976      1.031523      0.014223
  H       0.736332      1.785431     -0.743056
  C      -1.031203      0.857620     -0.013375
  H      -1.368802      0.830435     -1.053196
  H      -1.485574      1.756934      0.414533
  C      -1.593026     -0.372200      0.703985
  H      -1.242896     -1.278839      0.202323
  H      -1.210967     -0.421020      1.727520
  C       0.976049      1.593600      1.358647
  H       0.481098      2.545726      1.568602
  H       0.757351      0.912690      2.184770
  H       2.050590      1.780313      1.363900
  C      -3.118719     -0.385945      0.741035
  H      -3.494703     -1.283538      1.236171
  H      -3.510872      0.479383      1.280843
  H      -3.539312     -0.363426     -0.267399
23
Coordinates from ORCA-job 7 Relaxed Surface Scan Step 21
  C       2.736789      0.000569     -0.783725
  H       3.304665      0.277675      0.105762
  H       3.191386     -0.905637     -1.189123
  H       2.868610      0.794767     -1.522810
  C       1.258467     -0.228402     -0.475851
  H       0.768898     -0.595331     -1.383074
  H       1.169110     -1.031686      0.261158
  C       0.502016      1.016375      0.016414
  H       0.724949      1.822045     -0.692010
  C      -1.025723      0.830334     -0.035178
  H      -1.318536      0.661843     -1.076559
  H      -1.495622      1.775767      0.255311
  C      -1.614908     -0.292323      0.821653
  H      -1.191754     -1.252905      0.516998
  H      -1.333155     -0.152890      1.868561
  C       0.980323      1.490650      1.393362
  H       0.407579      2.359988      1.724693
  H       0.872774      0.712280      2.152085
  H       2.030565      1.784188      1.373835
  C      -3.136234     -0.368202      0.724474
  H      -3.532093     -1.179659      1.338500
  H      -3.602152      0.560621      1.062544
  H      -3.459635     -0.543407     -0.304540
23
Coordinates from ORCA-job 7 Relaxed Surface Scan Step 22
  C       2.758369      0.030204     -0.779820
  H       3.282651      0.170776      0.166573
  H       3.212426     -0.829183     -1.277269
  H       2.950030      0.909551     -1.400071
  C       1.260279     -0.191617     -0.582796
  H       0.817912     -0.444211     -1.550733
  H       1.111202     -1.068104      0.055045
  C       0.496081      1.008934     -0.000941
  H       0.697953      1.865587     -0.655611
  C      -1.029448      0.801332     -0.059725
  H      -1.287742      0.483312     -1.075711
  H      -1.514677      1.772323      0.084546
  C      -1.638924     -0.187006      0.937250
  H      -1.146329     -1.158931      0.860260
  H      -1.461801      0.161200      1.957801
  C       0.986506      1.387253      1.401083
  H       0.367198      2.172384      1.838476
  H       0.962730      0.532418      2.080888
  H       2.011437      1.759082      1.378541
  C      -3.140012     -0.373800      0.733535
  H      -3.555313     -1.069308      1.465636
  H      -3.674601      0.573734      0.836654
  H      -3.359610     -0.769268     -0.261128
23
Coordinates from ORCA-job 7 Relaxed Surface Scan Step 23
  C       2.785771      0.076159     -0.783744
  H       3.274215      0.095083      0.191419
  H       3.248238     -0.726209     -1.362089
  H       3.012664      1.019077     -1.288130
  C       1.278585     -0.142382     -0.673928
  H       0.878128     -0.290264     -1.680517
  H       1.089139     -1.076747     -0.134692
  C       0.491102      0.998393     -0.007227
  H       0.663648      1.907072     -0.598483
  C      -1.030591      0.741814     -0.089327
  H      -1.227898      0.254195     -1.050696
  H      -1.546571      1.706437     -0.125809
  C      -1.676582     -0.085326      1.024975
  H      -1.152931     -1.033404      1.159762
  H      -1.584934      0.443927      1.976328
  C       0.991329      1.280023      1.413825
  H       0.373681      2.018468      1.924026
  H       0.989365      0.374834      2.025577
  H       2.010635      1.666935      1.403578
  C      -3.152673     -0.368256      0.758922
  H      -3.599968     -0.937150      1.576512
  H      -3.720592      0.559202      0.651347
  H      -3.287442     -0.945220     -0.159147
23
Coordinates from ORCA-job 7 Relaxed Surface Scan Step 24
  C       2.826978      0.171538     -0.822897
  H       3.314216      0.116912      0.151358
  H       3.313423     -0.561624     -1.469439
  H       3.026305      1.162195     -1.240005
  C       1.327113     -0.100987     -0.740427
  H       0.936701     -0.181413     -1.758439
  H       1.161383     -1.080505     -0.277432
  C       0.493438      0.954204      0.008097
  H       0.633353      1.910704     -0.510379
  C      -1.021179      0.628701     -0.112676
  H      -1.144554     -0.044563     -0.967387
  H      -1.557781      1.545362     -0.374088
  C      -1.736902      0.011353      1.091664
  H      -1.231145     -0.896852      1.423157
  H      -1.701065      0.700045      1.938727
  C       0.993393      1.146950      1.444299
  H       0.387039      1.858992      2.001254
  H       0.988932      0.207115      2.001078
  H       2.014688      1.528091      1.451768
  C      -3.195463     -0.320532      0.787881
  H      -3.695336     -0.740820      1.662882
  H      -3.750499      0.571030      0.485745
  H      -3.276718     -1.049238     -0.022259
