24
Coordinates from ORCA-job 11 Relaxed Surface Scan Step 1
  C      67.848967     -7.100694     -7.277853
  H      68.636232     -7.544985     -6.667401
  C      67.451400     -5.790442     -6.569657
  H      66.990550     -6.051182     -5.614015
  O      68.426618     -6.872053     -8.525689
  H      67.783425     -6.456720     -9.083536
  C      66.397633     -5.028650     -7.341103
  O      66.171421     -5.151816     -8.501547
  O      65.737619     -4.163185     -6.591715
  H      65.119006     -3.692046     -7.138067
  C      68.666286     -4.875160     -6.257544
  H      68.466306     -4.330228     -5.334317
  H      69.514858     -5.527968     -6.043164
  C      66.710273     -8.112643     -7.365866
  H      67.081083     -9.029693     -7.824322
  H      66.322637     -8.358114     -6.374886
  H      65.886553     -7.741369     -7.976786
  C      69.067018     -3.868908     -7.338498
  H      68.256428     -3.145858     -7.479548
  H      69.203288     -4.385457     -8.287992
  C      70.341458     -3.111439     -6.979223
  H      70.593628     -2.381886     -7.750815
  H      70.232617     -2.571769     -6.035128
  H      71.189975     -3.791747     -6.877319
24
Coordinates from ORCA-job 11 Relaxed Surface Scan Step 2
  C      67.834085     -7.141230     -7.218756
  H      68.571468     -7.596241     -6.555990
  C      67.461558     -5.791602     -6.574537
  H      66.973835     -5.988289     -5.617650
  O      68.484499     -6.964493     -8.438707
  H      67.886644     -6.542800     -9.040416
  C      66.445242     -5.042008     -7.406502
  O      66.283904     -5.176292     -8.576682
  O      65.733409     -4.181006     -6.700764
  H      65.141776     -3.719957     -7.284474
  C      68.720961     -4.916834     -6.297571
  H      68.649184     -4.502097     -5.292321
  H      69.582414     -5.585584     -6.287510
  C      66.663511     -8.111962     -7.338210
  H      67.022625     -9.058125     -7.743808
  H      66.212422     -8.307192     -6.362948
  H      65.890000     -7.732899     -8.007079
  C      69.002301     -3.774344     -7.275539
  H      68.193022     -3.038691     -7.219761
  H      69.014604     -4.160170     -8.295631
  C      70.325109     -3.074179     -6.981412
  H      70.495120     -2.250482     -7.676949
  H      70.341548     -2.662535     -5.969228
  H      71.166041     -3.765001     -7.073547
24
Coordinates from ORCA-job 11 Relaxed Surface Scan Step 3
  C      67.812167     -7.188114     -7.184923
  H      68.526292     -7.634397     -6.490977
  C      67.487151     -5.791370     -6.618631
  H      66.987858     -5.918892     -5.657648
  O      68.478059     -7.099776     -8.405542
  H      67.911223     -6.666908     -9.029148
  C      66.497147     -5.059524     -7.498452
  O      66.375057     -5.212904     -8.671334
  O      65.750965     -4.196959     -6.831441
  H      65.175365     -3.751900     -7.443018
  C      68.789541     -4.962122     -6.384123
  H      68.852744     -4.709741     -5.324730
  H      69.634052     -5.616886     -6.596972
  C      66.605311     -8.117043     -7.266014
  H      66.929474     -9.097249     -7.616241
  H      66.135852     -8.240767     -6.287763
  H      65.855075     -7.744283     -7.964721
  C      68.967359     -3.681560     -7.202378
  H      68.161958     -2.978524     -6.972871
  H      68.889500     -3.915982     -8.266039
  C      70.308172     -3.006270     -6.932510
  H      70.411722     -2.092652     -7.520501
  H      70.412311     -2.736276     -5.878828
  H      71.140925     -3.663910     -7.191186
24
Coordinates from ORCA-job 11 Relaxed Surface Scan Step 4
  C      67.790545     -7.232874     -7.159547
  H      68.495874     -7.660433     -6.444523
  C      67.525698     -5.789225     -6.683878
  H      67.032102     -5.843203     -5.714504
  O      68.439566     -7.258347     -8.391456
  H      67.903224     -6.807729     -9.029683
  C      66.555304     -5.079098     -7.603929
  O      66.481776     -5.234388     -8.780804
  O      65.763592     -4.233509     -6.969032
  H      65.202417     -3.803407     -7.604380
  C      68.863839     -5.005330     -6.513506
  H      69.073803     -4.933970     -5.443258
  H      69.657251     -5.608249     -6.953605
  C      66.542978     -8.110019     -7.165411
  H      66.816989     -9.124527     -7.455174
  H      66.079778     -8.147764     -6.177269
  H      65.801798     -7.749044     -7.880785
  C      68.944778     -3.604472     -7.124098
  H      68.142023     -2.974856     -6.735992
  H      68.790609     -3.672218     -8.203757
  C      70.287352     -2.933434     -6.852689
  H      70.330286     -1.943503     -7.310243
  H      70.460756     -2.811515     -5.780859
  H      71.112943     -3.522898     -7.257611
24
Coordinates from ORCA-job 11 Relaxed Surface Scan Step 5
  C      67.772344     -7.263549     -7.129008
  H      68.473848     -7.666748     -6.396109
  C      67.568706     -5.779283     -6.754822
  H      67.095378     -5.748740     -5.774079
  O      68.393013     -7.410026     -8.366846
  H      67.891556     -6.945530     -9.023528
  C      66.613689     -5.101942     -7.715157
  O      66.611198     -5.246526     -8.895843
  O      65.753421     -4.298494     -7.117042
  H      65.206818     -3.888634     -7.778115
  C      68.930107     -5.036875     -6.676829
  H      69.303097     -5.155393     -5.654940
  H      69.631945     -5.549036     -7.334384
  C      66.487934     -8.082376     -7.051712
  H      66.710567     -9.126337     -7.272170
  H      66.039038     -8.027148     -6.057972
  H      65.751630     -7.740210     -7.782257
  C      68.925420     -3.549551     -7.036410
  H      68.137484     -3.027964     -6.490893
  H      68.684149     -3.438346     -8.096757
  C      70.267841     -2.880213     -6.760971
  H      70.251571     -1.830058     -7.057737
  H      70.521290     -2.921504     -5.699073
  H      71.073238     -3.369528     -7.313339
24
Coordinates from ORCA-job 11 Relaxed Surface Scan Step 6
  C      67.761770     -7.272403     -7.089072
  H      68.451016     -7.642668     -6.328016
  C      67.593875     -5.760696     -6.818224
  H      67.136912     -5.647270     -5.834674
  O      68.378684     -7.522339     -8.312103
  H      67.904750     -7.074496     -9.000067
  C      66.651588     -5.133762     -7.823234
  O      66.702784     -5.305726     -8.999219
  O      65.744709     -4.345185     -7.277809
  H      65.209800     -3.969723     -7.968303
  C      68.958853     -5.039449     -6.822338
  H      69.473010     -5.324879     -5.899532
  H      69.553849     -5.431295     -7.647134
  C      66.454916     -8.048413     -6.959899
  H      66.649117     -9.111093     -7.104604
  H      66.003653     -7.909691     -5.975489
  H      65.730853     -7.739566     -7.717429
  C      68.903142     -3.514074     -6.918895
  H      68.184734     -3.116233     -6.199135
  H      68.529575     -3.227844     -7.906075
  C      70.264966     -2.862949     -6.700781
  H      70.204859     -1.778639     -6.809615
  H      70.650478     -3.075713     -5.700991
  H      70.997385     -3.229904     -7.423355
24
Coordinates from ORCA-job 11 Relaxed Surface Scan Step 7
  C      67.754626     -7.263593     -7.045431
  H      68.419719     -7.593150     -6.245535
  C      67.591335     -5.737559     -6.867679
  H      67.130532     -5.557253     -5.895608
  O      68.403565     -7.587060     -8.233903
  H      67.944710     -7.185973     -8.959817
  C      66.663002     -5.171574     -7.919803
  O      66.731073     -5.420929     -9.080952
  O      65.750784     -4.348122     -7.439011
  H      65.225505     -4.017685     -8.159279
  C      68.952788     -5.020192     -6.914346
  H      69.560556     -5.430580     -6.103081
  H      69.457394     -5.288821     -7.842673
  C      66.439465     -8.024210     -6.906793
  H      66.631562     -9.094579     -6.980284
  H      65.961641     -7.823527     -5.945813
  H      65.738865     -7.759678     -7.702073
  C      68.891970     -3.499037     -6.777761
  H      68.306940     -3.227996     -5.894887
  H      68.360838     -3.071069     -7.632698
  C      70.275844     -2.863516     -6.689138
  H      70.206030     -1.777074     -6.611508
  H      70.822581     -3.224467     -5.814945
  H      70.873955     -3.096368     -7.572975
24
Coordinates from ORCA-job 11 Relaxed Surface Scan Step 8
  C      67.744830     -7.247591     -7.005117
  H      68.385330     -7.531374     -6.168585
  C      67.578549     -5.714806     -6.914937
  H      67.105575     -5.476231     -5.961639
  O      68.431192     -7.630807     -8.153964
  H      67.981612     -7.285094     -8.913265
  C      66.665808     -5.210571     -8.011193
  O      66.721988     -5.563478     -9.145850
  O      65.781977     -4.318236     -7.605047
  H      65.265456     -4.035891     -8.351633
  C      68.939887     -4.997193     -6.987020
  H      69.615024     -5.507239     -6.296013
  H      69.363211     -5.141270     -7.981951
  C      66.428032     -8.004790     -6.863677
  H      66.625962     -9.076652     -6.870044
  H      65.921888     -7.752632     -5.929565
  H      65.750643     -7.789359     -7.692736
  C      68.900222     -3.509964     -6.637116
  H      68.475846     -3.385458     -5.635911
  H      68.227938     -2.979482     -7.316500
  C      70.278353     -2.858037     -6.688444
  H      70.221835     -1.798129     -6.434003
  H      70.967773     -3.331929     -5.985842
  H      70.716347     -2.937798     -7.685936
24
Coordinates from ORCA-job 11 Relaxed Surface Scan Step 9
  C      67.738910     -7.228853     -6.976109
  H      68.375749     -7.457832     -6.120185
  C      67.560425     -5.696171     -6.972922
  H      67.076176     -5.404872     -6.040028
  O      68.440847     -7.664801     -8.096498
  H      67.973217     -7.394062     -8.874860
  C      66.657556     -5.252140     -8.102568
  O      66.641349     -5.743914     -9.185669
  O      65.876568     -4.233380     -7.793178
  H      65.365791     -3.994834     -8.558718
  C      68.919485     -4.967734     -7.070422
  H      69.653630     -5.558388     -6.519838
  H      69.259197     -4.974259     -8.107997
  C      66.431004     -7.993841     -6.800355
  H      66.643521     -9.061498     -6.743420
  H      65.916763     -7.696156     -5.884041
  H      65.756147     -7.834504     -7.643260
  C      68.914082     -3.542316     -6.518820
  H      68.630977     -3.573133     -5.461052
  H      68.147382     -2.947155     -7.020161
  C      70.266207     -2.850500     -6.659085
  H      70.238006     -1.842942     -6.240278
  H      71.051211     -3.404452     -6.138926
  H      70.561079     -2.766275     -7.707604
24
Coordinates from ORCA-job 11 Relaxed Surface Scan Step 10
  C      67.740600     -7.204279     -6.961060
  H      68.401234     -7.372174     -6.108896
  C      67.537743     -5.679016     -7.042752
  H      67.040089     -5.345002     -6.130886
  O      68.427226     -7.690189     -8.071049
  H      67.913557     -7.511671     -8.846687
  C      66.639847     -5.295363     -8.196766
  O      66.496817     -5.929932     -9.192418
  O      66.027574     -4.137665     -8.020913
  H      65.517701     -3.938912     -8.798126
  C      68.885955     -4.923529     -7.169459
  H      69.674376     -5.572490     -6.786810
  H      69.128952     -4.772548     -8.224119
  C      66.453172     -7.981893     -6.707937
  H      66.688908     -9.040707     -6.598770
  H      65.961058     -7.644544     -5.793106
  H      65.751260     -7.879274     -7.536490
  C      68.925456     -3.590860     -6.423047
  H      68.751326     -3.780855     -5.358033
  H      68.104841     -2.953121     -6.758482
  C      70.249455     -2.853640     -6.594089
  H      70.253596     -1.917593     -6.032647
  H      71.088869     -3.456910     -6.240301
  H      70.435666     -2.611845     -7.643148
24
Coordinates from ORCA-job 11 Relaxed Surface Scan Step 11
  C      67.745611     -7.158025     -6.941992
  H      68.424869     -7.257809     -6.093507
  C      67.511457     -5.646756     -7.119558
  H      66.992333     -5.270928     -6.236184
  O      68.423013     -7.701748     -8.031091
  H      67.885777     -7.597772     -8.804261
  C      66.618532     -5.342280     -8.298953
  O      66.421706     -6.064638     -9.222559
  O      66.078779     -4.137324     -8.234079
  H      65.569877     -3.985080     -9.022117
  C      68.843825     -4.861985     -7.275793
  H      69.670591     -5.547842     -7.091016
  H      68.972657     -4.534608     -8.310583
  C      66.478692     -7.941564     -6.615186
  H      66.736267     -8.987548     -6.447138
  H      65.999371     -7.557933     -5.711907
  H      65.758329     -7.900446     -7.432927
  C      68.952862     -3.657766     -6.342973
  H      68.868969     -4.005482     -5.307349
  H      68.104570     -2.989813     -6.512748
  C      70.255973     -2.884710     -6.512791
  H      70.306186     -2.041497     -5.821528
  H      71.122942     -3.521962     -6.323323
  H      70.352090     -2.488494     -7.526429
24
Coordinates from ORCA-job 11 Relaxed Surface Scan Step 12
  C      67.753568     -7.077694     -6.908486
  H      68.427401     -7.093948     -6.049658
  C      67.466726     -5.592322     -7.195109
  H      66.910372     -5.183816     -6.350075
  O      68.459081     -7.675948     -7.950124
  H      67.934360     -7.631591     -8.737702
  C      66.591059     -5.398176     -8.410186
  O      66.461588     -6.169889     -9.305140
  O      65.980965     -4.225398     -8.412168
  H      65.486307     -4.136954     -9.218724
  C      68.774072     -4.770207     -7.375245
  H      69.611734     -5.467148     -7.411850
  H      68.775598     -4.260442     -8.341737
  C      66.508947     -7.877666     -6.539031
  H      66.796107     -8.902006     -6.300742
  H      66.008524     -7.450360     -5.667463
  H      65.795982     -7.912775     -7.364004
  C      68.993628     -3.732215     -6.276949
  H      68.975259     -4.227034     -5.301111
  H      68.155318     -3.029655     -6.278208
  C      70.302800     -2.966157     -6.430489
  H      70.426358     -2.233559     -5.630881
  H      71.161684     -3.640483     -6.399891
  H      70.337841     -2.428569     -7.381017
24
Coordinates from ORCA-job 11 Relaxed Surface Scan Step 13
  C      67.751738     -6.981474     -6.859372
  H      68.392124     -6.918248     -5.977747
  C      67.413239     -5.530185     -7.251279
  H      66.806843     -5.096330     -6.455269
  O      68.517327     -7.618005     -7.833721
  H      68.034434     -7.620802     -8.649088
  C      66.582788     -5.452171     -8.511454
  O      66.584988     -6.246155     -9.396261
  O      65.849086     -4.354274     -8.568352
  H      65.390384     -4.333898     -9.400371
  C      68.688387     -4.667569     -7.441258
  H      69.508433     -5.339446     -7.699110
  H      68.564842     -3.992197     -8.291259
  C      66.523362     -7.804922     -6.486552
  H      66.836632     -8.801758     -6.175924
  H      65.972846     -7.345223     -5.663112
  H      65.845627     -7.917154     -7.334712
  C      69.046960     -3.826690     -6.217200
  H      69.113488     -4.463901     -5.332052
  H      68.234142     -3.120994     -6.021525
  C      70.355406     -3.061783     -6.384818
  H      70.575725     -2.460425     -5.500975
  H      71.194189     -3.743578     -6.541659
  H      70.312289     -2.386829     -7.242924
24
Coordinates from ORCA-job 11 Relaxed Surface Scan Step 14
  C      67.727761     -6.901890     -6.800344
  H      68.312992     -6.785261     -5.887930
  C      67.370533     -5.480392     -7.279887
  H      66.716502     -5.018520     -6.538744
  O      68.564221     -7.559287     -7.699894
  H      68.127610     -7.615324     -8.539083
  C      66.599278     -5.497858     -8.580894
  O      66.688609     -6.326876     -9.428402
  O      65.809115     -4.447853     -8.720413
  H      65.390777     -4.489318     -9.572695
  C      68.617920     -4.585820     -7.466837
  H      69.401308     -5.193890     -7.922121
  H      68.386811     -3.782658     -8.170923
  C      66.501476     -7.742640     -6.458876
  H      66.822752     -8.714208     -6.083163
  H      65.892500     -7.261216     -5.690847
  H      65.876711     -7.914772     -7.337113
  C      69.125114     -3.948558     -6.173580
  H      69.334876     -4.718546     -5.428334
  H      68.334358     -3.321468     -5.750714
  C      70.379965     -3.107560     -6.385290
  H      70.712273     -2.654823     -5.449385
  H      71.201408     -3.715076     -6.771332
  H      70.200411     -2.300199     -7.099191
24
Coordinates from ORCA-job 11 Relaxed Surface Scan Step 15
  C      67.674183     -6.826969     -6.717999
  H      68.166042     -6.661742     -5.760361
  C      67.330807     -5.435928     -7.287368
  H      66.638635     -4.940002     -6.604362
  O      68.606081     -7.494191     -7.510111
  H      68.244408     -7.603708     -8.379052
  C      66.630283     -5.536477     -8.624600
  O      66.798343     -6.400112     -9.424440
  O      65.812728     -4.525089     -8.857156
  H      65.444062     -4.621764     -9.727756
  C      68.563943     -4.526092     -7.474990
  H      69.280995     -5.041789     -8.116007
  H      68.247518     -3.625443     -8.007528
  C      66.441919     -7.687237     -6.453177
  H      66.751528     -8.629029     -5.999745
  H      65.751162     -7.188427     -5.769958
  H      65.907560     -7.920883     -7.375324
  C      69.247862     -4.105692     -6.174744
  H      69.648815     -4.982368     -5.663218
  H      68.507492     -3.663317     -5.500665
  C      70.380007     -3.109656     -6.407100
  H      70.857814     -2.832071     -5.465853
  H      71.148951     -3.532372     -7.057546
  H      70.014142     -2.193654     -6.876930
24
Coordinates from ORCA-job 11 Relaxed Surface Scan Step 16
  C      67.635614     -6.744634     -6.654616
  H      68.053322     -6.523985     -5.673828
  C      67.280209     -5.391047     -7.299219
  H      66.547911     -4.884705     -6.666766
  O      68.645101     -7.399312     -7.357280
  H      68.341915     -7.565385     -8.239377
  C      66.645760     -5.574519     -8.659485
  O      66.862887     -6.483363     -9.395075
  O      65.833226     -4.588306     -8.993105
  H      65.509560     -4.740628     -9.873598
  C      68.488979     -4.444366     -7.479070
  H      69.137613     -4.830493     -8.267706
  H      68.109090     -3.482654     -7.833461
  C      66.424278     -7.646145     -6.431997
  H      66.742591     -8.551823     -5.915274
  H      65.671312     -7.148345     -5.816967
  H      65.960888     -7.943975     -7.373185
  C      69.321726     -4.225809     -6.217587
  H      69.796814     -5.166721     -5.934232
  H      68.667234     -3.939513     -5.387783
  C      70.395455     -3.158532     -6.405447
  H      70.987882     -3.034544     -5.497212
  H      71.080254     -3.426341     -7.213276
  H      69.955657     -2.188868     -6.650448
24
Coordinates from ORCA-job 11 Relaxed Surface Scan Step 17
  C      67.607160     -6.685169     -6.609028
  H      67.985116     -6.423231     -5.622900
  C      67.230816     -5.362906     -7.306264
  H      66.439094     -4.880573     -6.728240
  O      68.658540     -7.330810     -7.257214
  H      68.387717     -7.536819     -8.141304
  C      66.679760     -5.615110     -8.690752
  O      66.931334     -6.566646     -9.359235
  O      65.904623     -4.640846     -9.129671
  H      65.635795     -4.837739    -10.019761
  C      68.396951     -4.347405     -7.447867
  H      68.972103     -4.558540     -8.351860
  H      67.957673     -3.359165     -7.603014
  C      66.416233     -7.616319     -6.397052
  H      66.745626     -8.496496     -5.844418
  H      65.629825     -7.125238     -5.819671
  H      65.991749     -7.954717     -7.342584
  C      69.360972     -4.303530     -6.264245
  H      69.845130     -5.278171     -6.171790
  H      68.803710     -4.133179     -5.337469
  C      70.421581     -3.217863     -6.418279
  H      71.106931     -3.217088     -5.568836
  H      71.015751     -3.372025     -7.322023
  H      69.971088     -2.224425     -6.482516
24
Coordinates from ORCA-job 11 Relaxed Surface Scan Step 18
  C      67.569581     -6.652127     -6.561332
  H      67.913617     -6.360496     -5.571321
  C      67.192503     -5.354115     -7.305870
  H      66.330369     -4.915015     -6.799417
  O      68.644312     -7.310502     -7.156263
  H      68.406674     -7.535987     -8.045165
  C      66.754701     -5.652538     -8.720742
  O      67.062816     -6.619695     -9.341859
  O      66.007578     -4.698473     -9.244344
  H      65.810384     -4.921066    -10.147011
  C      68.304689     -4.259419     -7.374209
  H      68.777073     -4.256929     -8.359102
  H      67.816322     -3.285708     -7.296949
  C      66.379655     -7.588628     -6.364921
  H      66.701156     -8.457827     -5.790783
  H      65.574022     -7.095587     -5.816759
  H      65.983347     -7.945074     -7.316402
  C      69.408750     -4.363972     -6.322506
  H      69.891060     -5.338765     -6.419011
  H      68.974384     -4.319035     -5.319546
  C      70.445096     -3.253282     -6.463589
  H      71.224896     -3.348735     -5.705928
  H      70.930153     -3.285909     -7.442114
  H      69.992141     -2.265130     -6.350849
24
Coordinates from ORCA-job 11 Relaxed Surface Scan Step 19
  C      67.511777     -6.637115     -6.499797
  H      67.807802     -6.317182     -5.502461
  C      67.171750     -5.361146     -7.300295
  H      66.247359     -4.957086     -6.885327
  O      68.607015     -7.325012     -7.018266
  H      68.418483     -7.564026     -7.915481
  C      66.859955     -5.686171     -8.743667
  O      67.221667     -6.655683     -9.330594
  O      66.143439     -4.746923     -9.334537
  H      66.019152     -4.982017    -10.246878
  C      68.232721     -4.206755     -7.274564
  H      68.555324     -3.980574     -8.293104
  H      67.728551     -3.299261     -6.936752
  C      66.305808     -7.560590     -6.340964
  H      66.593824     -8.423669     -5.740587
  H      65.479469     -7.053526     -5.838707
  H      65.950816     -7.928548     -7.304926
  C      69.485298     -4.422376     -6.422647
  H      69.978841     -5.343927     -6.729554
  H      69.206473     -4.554511     -5.374420
  C      70.452580     -3.247241     -6.529980
  H      71.335145     -3.411465     -5.909240
  H      70.794220     -3.106271     -7.558360
  H      69.987811     -2.312939     -6.204885
24
Coordinates from ORCA-job 11 Relaxed Surface Scan Step 20
  C      67.439469     -6.610068     -6.428232
  H      67.667086     -6.245887     -5.426433
  C      67.165779     -5.368837     -7.301045
  H      66.208963     -4.960380     -6.975596
  O      68.563831     -7.320944     -6.840648
  H      68.434126     -7.601950     -7.736065
  C      66.955956     -5.730421     -8.756514
  O      67.321681     -6.724651     -9.296018
  O      66.303179     -4.790047     -9.418356
  H      66.228677     -5.050978    -10.328949
  C      68.197358     -4.196934     -7.198258
  H      68.335088     -3.773398     -8.195396
  H      67.733469     -3.403177     -6.609224
  C      66.220920     -7.523510     -6.315282
  H      66.462719     -8.363772     -5.664281
  H      65.365206     -6.995072     -5.890273
  H      65.930202     -7.926396     -7.286925
  C      69.578708     -4.480159     -6.602355
  H      70.092266     -5.251617     -7.170722
  H      69.478664     -4.877150     -5.590978
  C      70.434735     -3.217338     -6.559515
  H      71.416065     -3.426853     -6.130194
  H      70.592836     -2.808502     -7.560639
  H      69.968294     -2.435971     -5.954094
24
Coordinates from ORCA-job 11 Relaxed Surface Scan Step 21
  C      67.385540     -6.590906     -6.375590
  H      67.569739     -6.194050     -5.375920
  C      67.158021     -5.373617     -7.293714
  H      66.172492     -4.974808     -7.050098
  O      68.527471     -7.313159     -6.713809
  H      68.434627     -7.630950     -7.601320
  C      67.058441     -5.757762     -8.756887
  O      67.392440     -6.790293     -9.241832
  O      66.527317     -4.796305     -9.493830
  H      66.502948     -5.083073    -10.399292
  C      68.141338     -4.185427     -7.098391
  H      68.109235     -3.579720     -8.007130
  H      67.732700     -3.556472     -6.303856
  C      66.162696     -7.500900     -6.291146
  H      66.374771     -8.324604     -5.609281
  H      65.290431     -6.961267     -5.916837
  H      65.913574     -7.926647     -7.264518
  C      69.599631     -4.491900     -6.750276
  H      70.052755     -5.140076     -7.497830
  H      69.650391     -5.051747     -5.816299
  C      70.423195     -3.213610     -6.620264
  H      71.457918     -3.441173     -6.357909
  H      70.435439     -2.648835     -7.555835
  H      70.022172     -2.556714     -5.844128
24
Coordinates from ORCA-job 11 Relaxed Surface Scan Step 22
  C      67.319359     -6.580382     -6.315248
  H      67.435427     -6.169037     -5.310728
  C      67.146117     -5.373299     -7.259571
  H      66.142621     -4.977916     -7.092222
  O      68.484977     -7.301518     -6.564150
  H      68.460944     -7.621982     -7.455234
  C      67.168371     -5.767065     -8.722831
  O      67.547795     -6.802552     -9.167049
  O      66.700181     -4.813856     -9.510403
  H      66.753425     -5.108246    -10.412242
  C      68.100548     -4.184417     -6.992782
  H      67.933822     -3.447751     -7.782899
  H      67.772443     -3.712965     -6.062605
  C      66.098468     -7.496522     -6.303415
  H      66.267826     -8.311829     -5.599842
  H      65.199598     -6.958346     -5.995951
  H      65.919177     -7.933935     -7.287087
  C      69.596468     -4.484818     -6.882443
  H      69.945323     -5.025283     -7.764089
  H      69.777511     -5.155824     -6.043836
  C      70.420014     -3.211706     -6.711908
  H      71.482763     -3.442817     -6.619832
  H      70.299364     -2.539210     -7.564923
  H      70.122738     -2.662734     -5.814703
24
Coordinates from ORCA-job 11 Relaxed Surface Scan Step 23
  C      67.247835     -6.567869     -6.254868
  H      67.281940     -6.141693     -5.250746
  C      67.137292     -5.372765     -7.224627
  H      66.126683     -4.970238     -7.125949
  O      68.435987     -7.281335     -6.400577
  H      68.484058     -7.615073     -7.285901
  C      67.260042     -5.788459     -8.675354
  O      67.679825     -6.828363     -9.070143
  O      66.847523     -4.850173     -9.509801
  H      66.969308     -5.156846    -10.400896
  C      68.087478     -4.193310     -6.915199
  H      67.813637     -3.365459     -7.573703
  H      67.865167     -3.858759     -5.898429
  C      66.038183     -7.496203     -6.324393
  H      66.158871     -8.298065     -5.595787
  H      65.113140     -6.962372     -6.097361
  H      65.940917     -7.951447     -7.311324
  C      69.589052     -4.458209     -7.039621
  H      69.819191     -4.833441     -8.041222
  H      69.882197     -5.249670     -6.352162
  C      70.417083     -3.204497     -6.774718
  H      71.484446     -3.414467     -6.864062
  H      70.175174     -2.406762     -7.481485
  H      70.240248     -2.818536     -5.767665
24
Coordinates from ORCA-job 11 Relaxed Surface Scan Step 24
  C      67.179075     -6.540736     -6.203154
  H      67.121723     -6.093601     -5.209720
  C      67.126129     -5.367456     -7.203252
  H      66.116197     -4.951691     -7.166665
  O      68.392801     -7.225581     -6.235822
  H      68.508498     -7.594766     -7.100604
  C      67.326282     -5.821302     -8.632321
  O      67.787147     -6.863602     -8.970260
  O      66.945311     -4.913418     -9.513825
  H      67.123108     -5.240165    -10.388268
  C      68.088526     -4.201796     -6.868493
  H      67.732504     -3.307375     -7.383222
  H      67.986887     -3.996317     -5.800054
  C      65.999919     -7.499135     -6.346908
  H      66.074872     -8.275902     -5.585611
  H      65.048464     -6.980046     -6.214176
  H      65.994923     -7.985398     -7.323412
  C      69.566332     -4.409061     -7.206867
  H      69.675706     -4.570031     -8.284606
  H      69.931314     -5.311475     -6.719224
  C      70.424421     -3.215173     -6.799691
  H      71.471687     -3.379297     -7.059619
  H      70.098166     -2.298933     -7.298174
  H      70.375285     -3.041753     -5.722042
