21
Coordinates from ORCA-job 15 Relaxed Surface Scan Step 1
  C      68.661710     -4.587994     -6.611520
  H      69.304904     -4.981081     -5.815696
  C      67.283205     -5.253298     -6.427141
  H      67.342927     -6.236499     -6.898837
  O      68.481877     -3.209679     -6.431326
  H      69.274941     -2.742591     -6.640388
  C      66.241035     -4.522682     -7.260259
  O      66.282220     -4.444925     -8.442274
  O      65.240385     -4.005676     -6.568284
  H      64.647891     -3.579211     -7.176064
  C      66.906855     -5.492641     -4.953109
  H      65.903884     -5.922155     -4.922389
  H      67.576917     -6.274318     -4.583824
  C      69.331474     -4.889615     -7.945363
  H      70.309140     -4.400620     -7.987178
  H      69.497957     -5.961896     -8.060412
  H      68.726250     -4.539000     -8.777890
  C      66.973455     -4.301983     -3.998265
  H      66.661149     -4.618800     -3.000799
  H      67.983471     -3.901652     -3.919475
  H      66.320634     -3.492392     -4.316663
21
Coordinates from ORCA-job 15 Relaxed Surface Scan Step 2
  C      68.650546     -4.571145     -6.608012
  H      69.302814     -4.939180     -5.807614
  C      67.288365     -5.270312     -6.424425
  H      67.381997     -6.251025     -6.890215
  O      68.439536     -3.194971     -6.450937
  H      69.236032     -2.718330     -6.622418
  C      66.237728     -4.569564     -7.269987
  O      66.170142     -4.677729     -8.449132
  O      65.376205     -3.833951     -6.590908
  H      64.788961     -3.415486     -7.208876
  C      66.898967     -5.511410     -4.953541
  H      65.893379     -5.939664     -4.933726
  H      67.561530     -6.299198     -4.583603
  C      69.320734     -4.875104     -7.941432
  H      70.278403     -4.350554     -8.004355
  H      69.524353     -5.942450     -8.039154
  H      68.695763     -4.563715     -8.776058
  C      66.964519     -4.329627     -3.987521
  H      66.660480     -4.659198     -2.991582
  H      67.973872     -3.926709     -3.909598
  H      66.307956     -3.519387     -4.294063
21
Coordinates from ORCA-job 15 Relaxed Surface Scan Step 3
  C      68.653808     -4.565026     -6.605277
  H      69.317794     -4.946086     -5.820420
  C      67.299271     -5.277369     -6.417398
  H      67.415099     -6.257527     -6.875286
  O      68.451960     -3.190981     -6.431058
  H      69.261559     -2.723411     -6.561320
  C      66.229989     -4.611929     -7.266306
  O      66.033934     -4.888146     -8.403318
  O      65.513147     -3.695411     -6.641966
  H      64.921396     -3.299596     -7.270285
  C      66.904150     -5.521812     -4.947495
  H      65.911123     -5.982184     -4.936881
  H      67.584674     -6.291414     -4.571887
  C      69.299198     -4.853488     -7.955131
  H      70.249946     -4.319463     -8.036200
  H      69.508423     -5.917970     -8.068719
  H      68.655210     -4.539715     -8.775436
  C      66.929999     -4.339989     -3.980050
  H      66.640639     -4.682372     -2.984030
  H      67.925194     -3.902899     -3.905553
  H      66.245771     -3.551917     -4.283140
21
Coordinates from ORCA-job 15 Relaxed Surface Scan Step 4
  C      68.675174     -4.578877     -6.601774
  H      69.358585     -5.022723     -5.867617
  C      67.320155     -5.284697     -6.402995
  H      67.444847     -6.270635     -6.845189
  O      68.525097     -3.213089     -6.344172
  H      69.352848     -2.771720     -6.449155
  C      66.225581     -4.661477     -7.251508
  O      65.883085     -5.100993     -8.298949
  O      65.660508     -3.585722     -6.734670
  H      65.035079     -3.245843     -7.363211
  C      66.922420     -5.521452     -4.931062
  H      65.955277     -6.035089     -4.927028
  H      67.636501     -6.250175     -4.536678
  C      69.259304     -4.807202     -7.991455
  H      70.220675     -4.294628     -8.081893
  H      69.431144     -5.867971     -8.177206
  H      68.596088     -4.426342     -8.767994
  C      66.872084     -4.327989     -3.979461
  H      66.587779     -4.674280     -2.983285
  H      67.840257     -3.836069     -3.901137
  H      66.149794     -3.581735     -4.300720
21
Coordinates from ORCA-job 15 Relaxed Surface Scan Step 5
  C      68.719248     -4.627839     -6.601802
  H      69.431109     -5.184822     -5.980058
  C      67.358437     -5.308083     -6.374929
  H      67.474320     -6.310362     -6.784273
  O      68.668630     -3.296881     -6.181247
  H      69.513032     -2.891070     -6.296293
  C      66.242282     -4.725824     -7.223833
  O      65.742083     -5.307573     -8.128470
  O      65.846826     -3.513401     -6.878364
  H      65.160017     -3.242918     -7.476127
  C      66.962042     -5.508699     -4.894903
  H      66.045919     -6.107557     -4.886354
  H      67.731134     -6.151517     -4.457233
  C      69.186317     -4.719760     -8.050821
  H      70.181271     -4.278725     -8.152254
  H      69.246218     -5.755878     -8.385153
  H      68.512957     -4.180440     -8.718281
  C      66.771245     -4.289186     -3.994850
  H      66.479997     -4.625506     -2.997152
  H      67.685140     -3.706906     -3.906580
  H      65.994060     -3.625760     -4.368180
21
Coordinates from ORCA-job 15 Relaxed Surface Scan Step 6
  C      68.769301     -4.702065     -6.609464
  H      69.490883     -5.369288     -6.122225
  C      67.395967     -5.341489     -6.348318
  H      67.476845     -6.356320     -6.737373
  O      68.839778     -3.437024     -6.022376
  H      69.690017     -3.057769     -6.177753
  C      66.263976     -4.752605     -7.170187
  O      65.589481     -5.393169     -7.905441
  O      66.068957     -3.455505     -7.003118
  H      65.328903     -3.194308     -7.538274
  C      67.028745     -5.497244     -4.853748
  H      66.220840     -6.231286     -4.798506
  H      67.889134     -5.967626     -4.370231
  C      69.115786     -4.635816     -8.093050
  H      70.137338     -4.270622     -8.225745
  H      69.051163     -5.618419     -8.561949
  H      68.448271     -3.952074     -8.619286
  C      66.619035     -4.261111     -4.054316
  H      66.429139     -4.553401     -3.019131
  H      67.393213     -3.499256     -4.063994
  H      65.705509     -3.812312     -4.442670
21
Coordinates from ORCA-job 15 Relaxed Surface Scan Step 7
  C      68.783146     -4.718533     -6.615486
  H      69.503519     -5.414823     -6.168542
  C      67.408973     -5.350025     -6.348046
  H      67.474149     -6.363919     -6.743219
  O      68.884920     -3.481185     -5.975990
  H      69.737881     -3.108261     -6.131284
  C      66.243520     -4.752153     -7.114398
  O      65.409379     -5.408282     -7.642772
  O      66.202476     -3.430544     -7.131020
  H      65.419647     -3.163045     -7.597926
  C      67.059458     -5.504836     -4.847869
  H      66.297935     -6.284084     -4.774274
  H      67.948577     -5.902733     -4.352316
  C      69.106784     -4.601752     -8.100970
  H      70.130421     -4.243585     -8.236962
  H      69.027625     -5.568724     -8.600281
  H      68.438336     -3.894385     -8.591861
  C      66.568229     -4.271309     -4.091971
  H      66.392932     -4.535740     -3.046973
  H      67.289733     -3.460156     -4.130144
  H      65.624646     -3.900633     -4.494853
21
Coordinates from ORCA-job 15 Relaxed Surface Scan Step 8
  C      68.778109     -4.703072     -6.615679
  H      69.496532     -5.394800     -6.158333
  C      67.406364     -5.338594     -6.353143
  H      67.467485     -6.344021     -6.770991
  O      68.869927     -3.462878     -5.979590
  H      69.720872     -3.084685     -6.132927
  C      66.211507     -4.733070     -7.067817
  O      65.264094     -5.371740     -7.383854
  O      66.276396     -3.431182     -7.286422
  H      65.467643     -3.160635     -7.705255
  C      67.067682     -5.525177     -4.853956
  H      66.310552     -6.309072     -4.790843
  H      67.961131     -5.921147     -4.365072
  C      69.122246     -4.595859     -8.097628
  H      70.147838     -4.237796     -8.219560
  H      69.055487     -5.568388     -8.588500
  H      68.460303     -3.895809     -8.605386
  C      66.568880     -4.298724     -4.091955
  H      66.380647     -4.567945     -3.050613
  H      67.290624     -3.486933     -4.116916
  H      65.627964     -3.927181     -4.502716
21
Coordinates from ORCA-job 15 Relaxed Surface Scan Step 9
  C      68.757811     -4.670064     -6.611374
  H      69.472716     -5.337071     -6.113680
  C      67.388295     -5.314762     -6.360857
  H      67.448720     -6.308543     -6.808725
  O      68.813200     -3.409918     -6.010218
  H      69.656433     -3.015370     -6.164920
  C      66.175119     -4.698192     -7.038149
  O      65.150063     -5.282790     -7.150996
  O      66.320492     -3.462192     -7.480520
  H      65.496499     -3.187226     -7.865519
  C      67.061617     -5.551165     -4.866660
  H      66.281851     -6.313044     -4.825114
  H      67.948214     -5.989516     -4.402062
  C      69.149312     -4.604946     -8.084334
  H      70.173565     -4.235017     -8.181118
  H      69.117467     -5.595315     -8.542204
  H      68.495057     -3.935833     -8.639544
  C      66.606187     -4.337848     -4.057886
  H      66.400118     -4.640058     -3.029025
  H      67.357824     -3.553200     -4.045493
  H      65.681723     -3.916638     -4.458760
21
Coordinates from ORCA-job 15 Relaxed Surface Scan Step 10
  C      68.715335     -4.615025     -6.598397
  H      69.424990     -5.225025     -6.026132
  C      67.352254     -5.284731     -6.373221
  H      67.418981     -6.262441     -6.859092
  O      68.694343     -3.319999     -6.072142
  H      69.519439     -2.891095     -6.232850
  C      66.131927     -4.654073     -7.030085
  O      65.052000     -5.137315     -6.953111
  O      66.343633     -3.544369     -7.713543
  H      65.511254     -3.252089     -8.065928
  C      67.034652     -5.585648     -4.890609
  H      66.194126     -6.278502     -4.877137
  H      67.888946     -6.125892     -4.475004
  C      69.188238     -4.623626     -8.048930
  H      70.201062     -4.215907     -8.109848
  H      69.225999     -5.641877     -8.440396
  H      68.541934     -4.022915     -8.684494
  C      66.700528     -4.392599     -3.997453
  H      66.451664     -4.745619     -2.994551
  H      67.528921     -3.692968     -3.922339
  H      65.832057     -3.846995     -4.371894
21
Coordinates from ORCA-job 15 Relaxed Surface Scan Step 11
  C      68.658955     -4.556698     -6.582173
  H      69.354756     -5.090879     -5.924143
  C      67.304931     -5.260203     -6.390240
  H      67.375481     -6.215761     -6.922043
  O      68.542763     -3.231010     -6.150368
  H      69.351061     -2.767166     -6.298836
  C      66.090008     -4.598634     -7.028678
  O      64.975689     -4.910997     -6.772270
  O      66.354450     -3.685108     -7.945929
  H      65.529963     -3.335425     -8.261444
  C      67.001882     -5.621462     -4.921342
  H      66.098496     -6.227060     -4.913199
  H      67.811761     -6.265409     -4.568802
  C      69.230796     -4.640970     -7.993731
  H      70.224451     -4.184620     -8.016398
  H      69.346764     -5.681274     -8.303320
  H      68.601456     -4.125213     -8.714340
  C      66.817496     -4.458497     -3.948817
  H      66.550033     -4.846223     -2.963673
  H      67.719509     -3.859186     -3.847633
  H      66.011582     -3.796915     -4.269778
21
Coordinates from ORCA-job 15 Relaxed Surface Scan Step 12
  C      68.613265     -4.513688     -6.569667
  H      69.292157     -4.981019     -5.846990
  C      67.267072     -5.244506     -6.403906
  H      67.333958     -6.175795     -6.978808
  O      68.419963     -3.171566     -6.220584
  H      69.216791     -2.681313     -6.344590
  C      66.070179     -4.534093     -7.019968
  O      64.962701     -4.620178     -6.609031
  O      66.345329     -3.858057     -8.123931
  H      65.550751     -3.428151     -8.415404
  C      66.977455     -5.650629     -4.947368
  H      66.036454     -6.195364     -4.931396
  H      67.752944     -6.360272     -4.646368
  C      69.261554     -4.651351     -7.942518
  H      70.236291     -4.155158     -7.940779
  H      69.434470     -5.701713     -8.184050
  H      68.650086     -4.205705     -8.722473
  C      66.902728     -4.519721     -3.923754
  H      66.644591     -4.929891     -2.945231
  H      67.847560     -3.987261     -3.828432
  H      66.135985     -3.793275     -4.191908
21
Coordinates from ORCA-job 15 Relaxed Surface Scan Step 13
  C      68.591645     -4.485025     -6.560829
  H      69.258736     -4.910721     -5.802984
  C      67.248491     -5.229159     -6.410668
  H      67.312358     -6.139981     -7.015455
  O      68.356208     -3.135497     -6.267725
  H      69.149155     -2.632655     -6.363852
  C      66.076375     -4.468553     -7.008553
  O      65.024824     -4.320284     -6.486565
  O      66.306955     -4.029788     -8.237989
  H      65.544059     -3.545489     -8.529419
  C      66.959498     -5.668027     -4.965381
  H      65.999639     -6.182555     -4.952663
  H      67.712644     -6.414401     -4.696969
  C      69.277214     -4.654154     -7.911029
  H      70.238275     -4.132040     -7.905106
  H      69.481829     -5.707638     -8.110188
  H      68.671745     -4.253966     -8.720000
  C      66.942531     -4.567900     -3.906173
  H      66.697788     -5.000416     -2.933790
  H      67.907441     -4.069839     -3.816737
  H      66.194874     -3.810624     -4.135079
21
Coordinates from ORCA-job 15 Relaxed Surface Scan Step 14
  C      68.591936     -4.466943     -6.550475
  H      69.254071     -4.885726     -5.784682
  C      67.246190     -5.210817     -6.412573
  H      67.314138     -6.109417     -7.030723
  O      68.349857     -3.115281     -6.273897
  H      69.145989     -2.613754     -6.349128
  C      66.097733     -4.414737     -7.006544
  O      65.137045     -4.050057     -6.421850
  O      66.238520     -4.204154     -8.309829
  H      65.489513     -3.705064     -8.613210
  C      66.941018     -5.671087     -4.977647
  H      65.967401     -6.164745     -4.982309
  H      67.672759     -6.444740     -4.726778
  C      69.281554     -4.642044     -7.897604
  H      70.238501     -4.112592     -7.895023
  H      69.492286     -5.695290     -8.090739
  H      68.672672     -4.251795     -8.709556
  C      66.954452     -4.599539     -3.889545
  H      66.709818     -5.053336     -2.926773
  H      67.932571     -4.127777     -3.794877
  H      66.224260     -3.819815     -4.093390
21
Coordinates from ORCA-job 15 Relaxed Surface Scan Step 15
  C      68.611086     -4.462760     -6.537361
  H      69.275538     -4.915396     -5.792772
  C      67.257444     -5.193924     -6.413243
  H      67.334564     -6.090172     -7.029793
  O      68.396029     -3.115758     -6.224037
  H      69.204074     -2.630960     -6.279590
  C      66.128012     -4.380456     -7.019029
  O      65.281909     -3.814233     -6.419235
  O      66.143158     -4.399354     -8.348108
  H      65.396315     -3.901787     -8.660518
  C      66.922539     -5.661030     -4.985714
  H      65.938374     -6.137778     -5.014930
  H      67.633111     -6.455041     -4.737120
  C      69.274266     -4.608022     -7.901653
  H      70.234562     -4.085074     -7.905351
  H      69.471103     -5.656755     -8.129672
  H      68.651802     -4.191068     -8.690809
  C      66.945465     -4.609738     -3.878513
  H      66.685684     -5.077255     -2.926184
  H      67.932774     -4.160813     -3.768992
  H      66.234474     -3.811334     -4.074532
21
Coordinates from ORCA-job 15 Relaxed Surface Scan Step 16
  C      68.646066     -4.474604     -6.525253
  H      69.318545     -4.996441     -5.834152
  C      67.281040     -5.183088     -6.413339
  H      67.366737     -6.084759     -7.018350
  O      68.488016     -3.145487     -6.123749
  H      69.316062     -2.693479     -6.155235
  C      66.166719     -4.364996     -7.041852
  O      65.457098     -3.606427     -6.479350
  O      66.023299     -4.618437     -8.340053
  H      65.281192     -4.118408     -8.660259
  C      66.910594     -5.643102     -4.990373
  H      65.923442     -6.114645     -5.045287
  H      67.607332     -6.444545     -4.727003
  C      69.254563     -4.550928     -7.921156
  H      70.224242     -4.046238     -7.933337
  H      69.417662     -5.586329     -8.223313
  H      68.611993     -4.072844     -8.659355
  C      66.913878     -4.597161     -3.878107
  H      66.620662     -5.067664     -2.936887
  H      67.902745     -4.161194     -3.739479
  H      66.220398     -3.787932     -4.091268
21
Coordinates from ORCA-job 15 Relaxed Surface Scan Step 17
  C      68.702695     -4.516743     -6.521792
  H      69.389314     -5.148821     -5.944958
  C      67.321911     -5.186529     -6.407037
  H      67.402655     -6.103978     -6.988030
  O      68.647860     -3.239552     -5.962817
  H      69.497246     -2.830168     -6.004563
  C      66.225451     -4.371097     -7.069830
  O      65.684304     -3.423639     -6.616594
  O      65.885125     -4.862628     -8.258706
  H      65.168185     -4.342055     -8.602135
  C      66.918698     -5.619602     -4.981826
  H      65.952891     -6.130223     -5.062764
  H      67.631973     -6.390077     -4.674424
  C      69.211581     -4.456200     -7.958560
  H      70.207970     -4.007608     -7.983821
  H      69.285093     -5.451982     -8.397264
  H      68.556496     -3.849889     -8.584978
  C      66.833370     -4.554156     -3.891213
  H      66.484750     -5.016237     -2.964657
  H      67.802325     -4.097974     -3.699010
  H      66.142389     -3.759548     -4.162177
21
Coordinates from ORCA-job 15 Relaxed Surface Scan Step 18
  C      68.774012     -4.588386     -6.531655
  H      69.458404     -5.333934     -6.107194
  C      67.372132     -5.205447     -6.403940
  H      67.422428     -6.138752     -6.964018
  O      68.851007     -3.407941     -5.793797
  H      69.704650     -3.018293     -5.894603
  C      66.297715     -4.377614     -7.085756
  O      65.979351     -3.272435     -6.812811
  O      65.699877     -5.051135     -8.064584
  H      65.026332     -4.496554     -8.440805
  C      66.957995     -5.602470     -4.968446
  H      66.061859     -6.224262     -5.056089
  H      67.739151     -6.267086     -4.588670
  C      69.178080     -4.349965     -7.983207
  H      70.211195     -3.996755     -8.033362
  H      69.113281     -5.265954     -8.572037
  H      68.545904     -3.588925     -8.443183
  C      66.693435     -4.497839     -3.947070
  H      66.352323     -4.950360     -3.012998
  H      67.588527     -3.916985     -3.743131
  H      65.924624     -3.807617     -4.289799
21
Coordinates from ORCA-job 15 Relaxed Surface Scan Step 19
  C      68.831685     -4.651643     -6.551071
  H      69.490420     -5.467534     -6.226925
  C      67.410329     -5.220845     -6.428269
  H      67.414438     -6.153860     -6.993548
  O      68.989205     -3.565380     -5.690145
  H      69.840476     -3.176566     -5.811083
  C      66.345389     -4.360458     -7.080706
  O      66.262633     -3.182081     -7.035312
  O      65.454107     -5.096760     -7.737482
  H      64.813460     -4.513847     -8.127965
  C      67.012878     -5.597958     -4.979053
  H      66.227339     -6.353795     -5.035735
  H      67.875926     -6.098548     -4.533534
  C      69.213013     -4.285479     -7.981156
  H      70.266814     -3.998661     -8.027193
  H      69.075754     -5.132253     -8.656300
  H      68.619357     -3.444526     -8.338323
  C      66.546157     -4.473119     -4.056688
  H      66.333422     -4.883000     -3.066909
  H      67.299116     -3.696598     -3.958763
  H      65.630368     -4.005797     -4.420996
21
Coordinates from ORCA-job 15 Relaxed Surface Scan Step 20
  C      68.850650     -4.646779     -6.556655
  H      69.501534     -5.462836     -6.217183
  C      67.428150     -5.212897     -6.457246
  H      67.426110     -6.136155     -7.041166
  O      68.986629     -3.563099     -5.686818
  H      69.831450     -3.158589     -5.800808
  C      66.357539     -4.347297     -7.090884
  O      66.399199     -3.181173     -7.278672
  O      65.294479     -5.070485     -7.431460
  H      64.652208     -4.492417     -7.826131
  C      67.023500     -5.610860     -5.014729
  H      66.264804     -6.391375     -5.080349
  H      67.896813     -6.076032     -4.552191
  C      69.272975     -4.281959     -7.975290
  H      70.330106     -4.003161     -7.988677
  H      69.153681     -5.131295     -8.651035
  H      68.693391     -3.441594     -8.352062
  C      66.503033     -4.494648     -4.110973
  H      66.281654     -4.898849     -3.120985
  H      67.227782     -3.692225     -4.006033
  H      65.576597     -4.064982     -4.497810
21
Coordinates from ORCA-job 15 Relaxed Surface Scan Step 21
  C      68.839679     -4.599578     -6.545939
  H      69.491960     -5.373446     -6.121564
  C      67.426570     -5.192039     -6.480087
  H      67.450060     -6.101879     -7.087451
  O      68.899624     -3.459480     -5.740396
  H      69.724017     -3.016885     -5.862008
  C      66.351906     -4.338756     -7.127495
  O      66.465382     -3.244520     -7.559388
  O      65.195067     -4.992203     -7.189675
  H      64.555825     -4.430669     -7.611553
  C      67.002986     -5.640058     -5.060079
  H      66.208002     -6.378370     -5.165904
  H      67.852297     -6.167714     -4.619844
  C      69.334073     -4.314247     -7.959810
  H      70.383934     -4.009498     -7.928808
  H      69.276618     -5.209416     -8.582234
  H      68.757351     -3.518752     -8.425209
  C      66.531882     -4.545793     -4.103811
  H      66.256200     -4.989974     -3.145099
  H      67.302732     -3.799786     -3.932345
  H      65.646119     -4.035646     -4.488457
21
Coordinates from ORCA-job 15 Relaxed Surface Scan Step 22
  C      68.803132     -4.540909     -6.510373
  H      69.447311     -5.234642     -5.958020
  C      67.406228     -5.180877     -6.501709
  H      67.465961     -6.068535     -7.141201
  O      68.752920     -3.327120     -5.815055
  H      69.363453     -2.707850     -6.178928
  C      66.348374     -4.323574     -7.175767
  O      66.537779     -3.371238     -7.852099
  O      65.123166     -4.797993     -6.984110
  H      64.513140     -4.251003     -7.464295
  C      66.965490     -5.695619     -5.113921
  H      66.105277     -6.349517     -5.256109
  H      67.770762     -6.331147     -4.737181
  C      69.414317     -4.374587     -7.897083
  H      70.444375     -4.019626     -7.801745
  H      69.451040     -5.330919     -8.421534
  H      68.851206     -3.665450     -8.498742
  C      66.620521     -4.643005     -4.062129
  H      66.287671     -5.136239     -3.146416
  H      67.472976     -4.011965     -3.823852
  H      65.807185     -3.996893     -4.396888
21
Coordinates from ORCA-job 15 Relaxed Surface Scan Step 23
  C      68.775735     -4.445883     -6.470775
  H      69.349599     -4.975331     -5.709674
  C      67.395664     -5.147435     -6.540561
  H      67.497984     -5.981517     -7.240254
  O      68.670247     -3.133168     -6.005775
  H      68.297870     -2.592733     -6.687697
  C      66.359590     -4.246988     -7.188994
  O      66.602415     -3.403322     -7.990429
  O      65.119494     -4.493615     -6.807999
  H      64.541226     -3.872945     -7.234890
  C      66.937762     -5.759976     -5.204895
  H      66.009575     -6.308424     -5.378324
  H      67.684678     -6.507266     -4.924645
  C      69.563497     -4.513373     -7.774294
  H      70.529147     -4.024849     -7.638034
  H      69.744276     -5.549158     -8.068349
  H      69.033244     -4.014192     -8.584936
  C      66.750532     -4.781886     -4.047459
  H      66.426629     -5.319583     -3.154263
  H      67.672812     -4.253399     -3.810315
  H      65.990307     -4.033666     -4.274592
21
Coordinates from ORCA-job 15 Relaxed Surface Scan Step 24
  C      68.734718     -4.408014     -6.462657
  H      69.291240     -4.874597     -5.649807
  C      67.380024     -5.160365     -6.557402
  H      67.526263     -5.984501     -7.258591
  O      68.556076     -3.076943     -6.072155
  H      68.280572     -2.564526     -6.818295
  C      66.346786     -4.277943     -7.235012
  O      66.560223     -3.636981     -8.212812
  O      65.158359     -4.278224     -6.660518
  H      64.596255     -3.670883     -7.126446
  C      66.923878     -5.788746     -5.230019
  H      65.983010     -6.316840     -5.403327
  H      67.658752     -6.558367     -4.978140
  C      69.581468     -4.507819     -7.725201
  H      70.521200     -3.974553     -7.574421
  H      69.813598     -5.548867     -7.956833
  H      69.065561     -4.075018     -8.582025
  C      66.774624     -4.841369     -4.041221
  H      66.467818     -5.403135     -3.156705
  H      67.710133     -4.333787     -3.807568
  H      66.021725     -4.077229     -4.228001
