18
Coordinates from ORCA-job 16 Relaxed Surface Scan Step 1
  C      -1.897985    -65.421332     10.665714
  H      -2.010192    -64.376442     10.358197
  H      -0.825035    -65.600231     10.765304
  C      -2.566575    -65.612690     12.000083
  H      -3.637032    -65.416684     12.025467
  C      -1.965623    -66.000787     13.114184
  H      -0.895110    -66.196209     13.089686
  C      -2.633001    -66.197674     14.448127
  H      -3.708198    -66.031390     14.340150
  H      -2.500645    -67.240917     14.750791
  C      -2.089124    -65.276470     15.547245
  H      -2.245906    -65.696515     16.541821
  H      -1.025048    -65.064937     15.421419
  H      -2.591470    -64.307012     15.513472
  C      -2.472971    -66.322549      9.572163
  H      -1.982368    -66.137687      8.614387
  H      -2.339217    -67.376555      9.823406
  H      -3.542775    -66.146442      9.436713
18
Coordinates from ORCA-job 16 Relaxed Surface Scan Step 2
  C      -1.882660    -65.432858     10.662039
  H      -1.973087    -64.387606     10.348592
  H      -0.813819    -65.631722     10.768129
  C      -2.561306    -65.604476     11.993952
  H      -3.627603    -65.386302     12.013464
  C      -1.973912    -66.000089     13.112596
  H      -0.907414    -66.217160     13.094243
  C      -2.651108    -66.179906     14.443732
  H      -3.720838    -65.983827     14.331351
  H      -2.551736    -67.228313     14.739850
  C      -2.086324    -65.278898     15.555217
  H      -2.071750    -65.784070     16.521814
  H      -1.077417    -64.923223     15.336736
  H      -2.696881    -64.380166     15.665550
  C      -2.469405    -66.328643      9.570443
  H      -1.972922    -66.156388      8.613370
  H      -2.354447    -67.383673      9.826517
  H      -3.535643    -66.135205      9.430735
18
Coordinates from ORCA-job 16 Relaxed Surface Scan Step 3
  C      -1.865338    -65.446318     10.660251
  H      -1.931259    -64.401216     10.340249
  H      -0.801770    -65.667086     10.775668
  C      -2.557589    -65.596108     11.987837
  H      -3.618946    -65.354532     11.998212
  C      -1.987210    -65.998185     13.112893
  H      -0.925503    -66.238373     13.103607
  C      -2.678704    -66.155346     14.440020
  H      -3.740238    -65.928553     14.318313
  H      -2.622238    -67.207216     14.734291
  C      -2.083258    -65.278164     15.561394
  H      -1.844355    -65.860573     16.452228
  H      -1.173781    -64.764564     15.244705
  H      -2.785303    -64.498755     15.862576
  C      -2.462483    -66.335778      9.569107
  H      -1.955407    -66.179283      8.614875
  H      -2.371505    -67.391519      9.831813
  H      -3.523384    -66.120955      9.420289
18
Coordinates from ORCA-job 16 Relaxed Surface Scan Step 4
  C      -1.844947    -65.461765     10.664660
  H      -1.881888    -64.416773     10.339695
  H      -0.788378    -65.708039     10.792108
  C      -2.554486    -65.588977     11.985502
  H      -3.609400    -65.320490     11.983947
  C      -2.005942    -66.000548     13.117893
  H      -0.950621    -66.268044     13.119956
  C      -2.715812    -66.129077     14.439456
  H      -3.765267    -65.864543     14.304269
  H      -2.712095    -67.180768     14.740202
  C      -2.081089    -65.275391     15.559381
  H      -1.577955    -65.895694     16.303193
  H      -1.332615    -64.593607     15.152630
  H      -2.827575    -64.678060     16.084030
  C      -2.452362    -66.341058      9.570937
  H      -1.931734    -66.201146      8.621437
  H      -2.390027    -67.397556      9.838898
  H      -3.506078    -66.100988      9.410135
18
Coordinates from ORCA-job 16 Relaxed Surface Scan Step 5
  C      -1.821833    -65.480157     10.672853
  H      -1.823762    -64.435240     10.345587
  H      -0.774565    -65.758308     10.810946
  C      -2.547599    -65.582790     11.987009
  H      -3.593577    -65.281593     11.974739
  C      -2.022972    -66.009071     13.125293
  H      -0.976689    -66.309963     13.137406
  C      -2.749534    -66.107040     14.441025
  H      -3.785411    -65.798940     14.297439
  H      -2.794081    -67.155071     14.752971
  C      -2.081011    -65.274098     15.549644
  H      -1.340844    -65.864129     16.094735
  H      -1.546683    -64.430615     15.109518
  H      -2.804860    -64.900366     16.274502
  C      -2.445431    -66.342879      9.575045
  H      -1.911657    -66.221081      8.630368
  H      -2.418067    -67.400184      9.845645
  H      -3.489698    -66.071002      9.403604
18
Coordinates from ORCA-job 16 Relaxed Surface Scan Step 6
  C      -1.797222    -65.502919     10.677055
  H      -1.757454    -64.459188     10.348441
  H      -0.762124    -65.820703     10.821178
  C      -2.533347    -65.575539     11.987404
  H      -3.566990    -65.234651     11.968914
  C      -2.031688    -66.020136     13.129127
  H      -0.997896    -66.360998     13.147292
  C      -2.768402    -66.088425     14.440452
  H      -3.793659    -65.744007     14.295729
  H      -2.843201    -67.132445     14.761629
  C      -2.084024    -65.271867     15.541750
  H      -1.175230    -65.768709     15.890152
  H      -1.785765    -64.296083     15.153962
  H      -2.737139    -65.129665     16.404071
  C      -2.447618    -66.342816      9.577098
  H      -1.904503    -66.243044      8.635174
  H      -2.462261    -67.399972      9.849255
  H      -3.479751    -66.031356      9.399645
18
Coordinates from ORCA-job 16 Relaxed Surface Scan Step 7
  C      -1.773356    -65.528907     10.675339
  H      -1.688996    -64.488585     10.344345
  H      -0.752860    -65.889475     10.822861
  C      -2.514936    -65.567014     11.984016
  H      -3.533577    -65.183786     11.961916
  C      -2.035132    -66.029026     13.128293
  H      -1.016375    -66.412016     13.150433
  C      -2.776964    -66.068420     14.436646
  H      -3.794338    -65.698234     14.291174
  H      -2.870282    -67.109933     14.761433
  C      -2.088286    -65.265861     15.541106
  H      -1.071644    -65.626033     15.716072
  H      -2.024763    -64.208768     15.275869
  H      -2.635226    -65.346087     16.482643
  C      -2.455809    -66.343511      9.575780
  H      -1.906714    -66.269009      8.634990
  H      -2.515498    -67.398440      9.850425
  H      -3.473516    -65.989419      9.394988
18
Coordinates from ORCA-job 16 Relaxed Surface Scan Step 8
  C      -1.752435    -65.554761     10.671184
  H      -1.626754    -64.520105     10.335561
  H      -0.747124    -65.953918     10.823602
  C      -2.498714    -65.557702     11.977713
  H      -3.501902    -65.135965     11.950601
  C      -2.040412    -66.031989     13.125776
  H      -1.036903    -66.452854     13.153467
  C      -2.787052    -66.043392     14.431152
  H      -3.794035    -65.646502     14.280356
  H      -2.904963    -67.083402     14.751736
  C      -2.089797    -65.260116     15.547311
  H      -1.014897    -65.452376     15.563019
  H      -2.244070    -64.184249     15.445995
  H      -2.488761    -65.545382     16.523249
  C      -2.462686    -66.347585      9.573316
  H      -1.908362    -66.298945      8.633899
  H      -2.564038    -67.398084      9.852702
  H      -3.465369    -65.955199      9.387690
18
Coordinates from ORCA-job 16 Relaxed Surface Scan Step 9
  C      -1.733709    -65.579341     10.670064
  H      -1.570395    -64.551330     10.330240
  H      -0.743667    -66.012364     10.829863
  C      -2.486619    -65.550154     11.972475
  H      -3.474429    -65.094079     11.938006
  C      -2.051021    -66.034348     13.125172
  H      -1.062597    -66.489008     13.160468
  C      -2.804809    -66.017343     14.426512
  H      -3.795812    -65.586838     14.264736
  H      -2.962308    -67.053706     14.739991
  C      -2.088116    -65.257081     15.555061
  H      -1.005455    -65.248338     15.417579
  H      -2.433031    -64.224672     15.632592
  H      -2.289964    -65.719875     16.523321
  C      -2.465087    -66.352458      9.572016
  H      -1.904430    -66.327596      8.635422
  H      -2.604234    -67.397451      9.855755
  H      -3.452589    -65.926542      9.379056
18
Coordinates from ORCA-job 16 Relaxed Surface Scan Step 10
  C      -1.716110    -65.602826     10.673806
  H      -1.517768    -64.581578     10.332208
  H      -0.741506    -66.066480     10.842355
  C      -2.477559    -65.545894     11.970371
  H      -3.449914    -65.058437     11.927264
  C      -2.066140    -66.040241     13.127562
  H      -1.093011    -66.526205     13.171419
  C      -2.828798    -65.992574     14.423726
  H      -3.799267    -65.523812     14.249129
  H      -3.037841    -67.020181     14.734573
  C      -2.084601    -65.258069     15.559452
  H      -1.054946    -65.023571     15.285079
  H      -2.579235    -64.321317     15.820308
  H      -2.050379    -65.859137     16.469697
  C      -2.463262    -66.355880      9.572435
  H      -1.895109    -66.351641      8.640040
  H      -2.637473    -67.395065      9.858136
  H      -3.435352    -65.899616      9.370770
18
Coordinates from ORCA-job 16 Relaxed Surface Scan Step 11
  C      -1.699358    -65.625393     10.680502
  H      -1.468317    -64.611187     10.338467
  H      -0.740225    -66.116937     10.858479
  C      -2.470065    -65.543284     11.970276
  H      -3.427003    -65.027084     11.917822
  C      -2.083356    -66.047010     13.131880
  H      -1.125721    -66.562124     13.184828
  C      -2.854820    -65.966962     14.422149
  H      -3.802384    -65.458300     14.238034
  H      -3.118136    -66.980781     14.737313
  C      -2.080758    -65.263090     15.557860
  H      -1.164124    -64.801785     15.186324
  H      -2.672635    -64.464170     16.006860
  H      -1.799270    -65.955319     16.352663
  C      -2.458655    -66.358890      9.574246
  H      -1.882603    -66.373433      8.646814
  H      -2.665615    -67.391861      9.860630
  H      -3.415226    -65.874915      9.363181
18
Coordinates from ORCA-job 16 Relaxed Surface Scan Step 12
  C      -1.682718    -65.648388     10.688200
  H      -1.418590    -64.642317     10.346108
  H      -0.740263    -66.167990     10.875286
  C      -2.461465    -65.540328     11.971226
  H      -3.401761    -64.995346     11.909632
  C      -2.100002    -66.053123     13.136980
  H      -1.159290    -66.597688     13.198620
  C      -2.878575    -65.941096     14.421157
  H      -3.802943    -65.393832     14.231512
  H      -3.187972    -66.939782     14.744240
  C      -2.078346    -65.267574     15.549930
  H      -1.319088    -64.599174     15.138768
  H      -2.715837    -64.647503     16.182390
  H      -1.567063    -65.995465     16.181942
  C      -2.454364    -66.361326      9.577059
  H      -1.871207    -66.395259      8.654593
  H      -2.694618    -67.386963      9.863798
  H      -3.394171    -65.849373      9.356889
18
Coordinates from ORCA-job 16 Relaxed Surface Scan Step 13
  C      -1.665335    -65.674294     10.694503
  H      -1.363660    -64.678733     10.352742
  H      -0.743059    -66.226475     10.888644
  C      -2.448183    -65.536510     11.972138
  H      -3.368246    -64.958826     11.903324
  C      -2.112953    -66.059913     13.141076
  H      -1.192752    -66.637641     13.209602
  C      -2.895176    -65.917185     14.419695
  H      -3.800065    -65.338613     14.226362
  H      -3.234686    -66.903796     14.751173
  C      -2.079309    -65.264194     15.540327
  H      -1.502845    -64.421660     15.152046
  H      -2.719616    -64.864380     16.328938
  H      -1.374583    -65.966942     15.989404
  C      -2.454403    -66.361429      9.579348
  H      -1.866705    -66.417567      8.660865
  H      -2.732672    -67.377432      9.866006
  H      -3.374025    -65.816936      9.352137
18
Coordinates from ORCA-job 16 Relaxed Surface Scan Step 14
  C      -1.648052    -65.703696     10.697059
  H      -1.304706    -64.721806     10.355080
  H      -0.749820    -66.292521     10.896176
  C      -2.430078    -65.531777     11.971005
  H      -3.326011    -64.917926     11.896985
  C      -2.121450    -66.065988     13.142476
  H      -1.225436    -66.679806     13.216406
  C      -2.903371    -65.893272     14.416476
  H      -3.794218    -65.293047     14.218917
  H      -3.260164    -66.872072     14.753593
  C      -2.083618    -65.251781     15.536602
  H      -1.700699    -64.276715     15.228572
  H      -2.687482    -65.103552     16.434127
  H      -1.227385    -65.873941     15.807478
  C      -2.459597    -66.360172      9.579562
  H      -1.870682    -66.441804      8.663780
  H      -2.780191    -67.363514      9.866604
  H      -3.355312    -65.779133      9.347431
18
Coordinates from ORCA-job 16 Relaxed Surface Scan Step 15
  C      -1.632849    -65.733969     10.696224
  H      -1.249046    -64.768083     10.351682
  H      -0.759724    -66.357599     10.901018
  C      -2.411805    -65.525540     11.966566
  H      -3.282577    -64.877180     11.886694
  C      -2.128885    -66.066508     13.141486
  H      -1.257752    -66.714290     13.221816
  C      -2.909158    -65.864002     14.411081
  H      -3.785930    -65.244757     14.206714
  H      -3.285120    -66.836081     14.746176
  C      -2.088169    -65.238791     15.542643
  H      -1.901411    -64.178619     15.364556
  H      -2.607850    -65.353431     16.495839
  H      -1.119560    -65.734455     15.644046
  C      -2.466093    -66.361849      9.578262
  H      -1.877665    -66.470786      8.665007
  H      -2.827776    -67.350338      9.868000
  H      -3.336902    -65.746246      9.340520
18
Coordinates from ORCA-job 16 Relaxed Surface Scan Step 16
  C      -1.619899    -65.763591     10.696159
  H      -1.199061    -64.814422     10.348398
  H      -0.771327    -66.417747     10.908851
  C      -2.397050    -65.519699     11.961298
  H      -3.243162    -64.840462     11.873470
  C      -2.139869    -66.063941     13.140583
  H      -1.292958    -66.742043     13.229188
  C      -2.920122    -65.830758     14.404854
  H      -3.774658    -65.185818     14.188597
  H      -3.331195    -66.791156     14.730517
  C      -2.089191    -65.233827     15.553439
  H      -2.103092    -64.143526     15.545887
  H      -2.464162    -65.595520     16.512263
  H      -1.045702    -65.550580     15.488008
  C      -2.469953    -66.366693      9.577213
  H      -1.881356    -66.502202      8.667621
  H      -2.869130    -67.339632      9.870348
  H      -3.316387    -65.720906      9.331634
18
Coordinates from ORCA-job 16 Relaxed Surface Scan Step 17
  C      -1.608039    -65.793749     10.699836
  H      -1.151654    -64.861234     10.351814
  H      -0.784502    -66.476496     10.920935
  C      -2.385243    -65.518105     11.958446
  H      -3.206199    -64.809777     11.862226
  C      -2.155346    -66.066362     13.141411
  H      -1.333264    -66.773340     13.238250
  C      -2.936483    -65.799712     14.399566
  H      -3.757833    -65.118599     14.170262
  H      -3.399739    -66.738206     14.717370
  C      -2.084026    -65.238794     15.558535
  H      -2.301409    -64.187711     15.750759
  H      -2.258071    -65.801108     16.476981
  H      -1.017123    -65.313285     15.339701
  C      -2.470667    -66.370869      9.576850
  H      -1.880724    -66.530243      8.672009
  H      -2.905741    -67.328152      9.870455
  H      -3.292211    -65.696784      9.322925
18
Coordinates from ORCA-job 16 Relaxed Surface Scan Step 18
  C      -1.597586    -65.822777     10.704652
  H      -1.109172    -64.906252     10.357624
  H      -0.797910    -66.530885     10.933412
  C      -2.374743    -65.519123     11.956872
  H      -3.171490    -64.784719     11.853084
  C      -2.171014    -66.071402     13.142681
  H      -1.373236    -66.804757     13.247006
  C      -2.950297    -65.770331     14.395006
  H      -3.734513    -65.048001     14.161458
  H      -3.468018    -66.679938     14.712832
  C      -2.075205    -65.247620     15.554377
  H      -2.466301    -64.308953     15.950176
  H      -2.032914    -65.948430     16.389677
  H      -1.051156    -65.055489     15.230854
  C      -2.470120    -66.375110      9.576869
  H      -1.879082    -66.555696      8.676739
  H      -2.937649    -67.317205      9.869708
  H      -3.267867    -65.675836      9.315300
18
Coordinates from ORCA-job 16 Relaxed Surface Scan Step 19
  C      -1.589030    -65.848362     10.708226
  H      -1.073467    -64.946933     10.360952
  H      -0.810622    -66.577701     10.943508
  C      -2.364069    -65.519055     11.955272
  H      -3.139085    -64.762684     11.844937
  C      -2.182512    -66.073342     13.143734
  H      -1.406817    -66.829149     13.254457
  C      -2.957460    -65.742182     14.391131
  H      -3.713276    -64.988680     14.159538
  H      -3.513169    -66.627681     14.714216
  C      -2.069327    -65.250083     15.547226
  H      -2.576223    -64.464892     16.112139
  H      -1.838856    -66.035050     16.270126
  H      -1.130489    -64.829978     15.183963
  C      -2.470674    -66.379863      9.577507
  H      -1.880139    -66.579870      8.681165
  H      -2.965879    -67.307557      9.870818
  H      -3.247177    -65.659464      9.309414
18
Coordinates from ORCA-job 16 Relaxed Surface Scan Step 20
  C      -1.582125    -65.870144     10.711993
  H      -1.043276    -64.982686     10.364095
  H      -0.822740    -66.617432     10.953024
  C      -2.354178    -65.517846     11.954582
  H      -3.110001    -64.743143     11.838372
  C      -2.191492    -66.072561     13.145626
  H      -1.435242    -66.846975     13.262050
  C      -2.962627    -65.717507     14.388425
  H      -3.700802    -64.946565     14.156171
  H      -3.538357    -66.588263     14.717916
  C      -2.067901    -65.245229     15.541344
  H      -2.637057    -64.617830     16.231174
  H      -1.683323    -66.074079     16.139537
  H      -1.225296    -64.653949     15.180053
  C      -2.471673    -66.383715      9.579183
  H      -1.882352    -66.601092      8.686097
  H      -2.990659    -67.298050      9.873325
  H      -3.229169    -65.645458      9.305363
18
Coordinates from ORCA-job 16 Relaxed Surface Scan Step 21
  C      -1.576206    -65.889192     10.717295
  H      -1.016411    -65.014640     10.369828
  H      -0.834535    -66.652427     10.963456
  C      -2.345812    -65.516999     11.955572
  H      -3.083886    -64.726151     11.834010
  C      -2.201000    -66.072530     13.148595
  H      -1.462657    -66.863259     13.269946
  C      -2.969383    -65.698029     14.387106
  H      -3.694503    -64.916480     14.149513
  H      -3.556930    -66.559293     14.721634
  C      -2.069370    -65.237560     15.536461
  H      -2.662674    -64.760501     16.319884
  H      -1.551083    -66.075831     16.007843
  H      -1.324782    -64.516414     15.195562
  C      -2.471820    -66.385731      9.581648
  H      -1.883452    -66.618190      8.691738
  H      -3.012160    -67.287693      9.875526
  H      -3.211608    -65.631603      9.302711
18
Coordinates from ORCA-job 16 Relaxed Surface Scan Step 22
  C      -1.570551    -65.908126     10.723235
  H      -0.989455    -65.046711     10.377934
  H      -0.847541    -66.687868     10.973140
  C      -2.337042    -65.517768     11.957813
  H      -3.056621    -64.710636     11.832375
  C      -2.210294    -66.075626     13.151852
  H      -1.490492    -66.882652     13.276974
  C      -2.976433    -65.684707     14.386480
  H      -3.690176    -64.895166     14.141043
  H      -3.571443    -66.539645     14.724323
  C      -2.072892    -65.229012     15.533040
  H      -2.666847    -64.896276     16.386946
  H      -1.432318    -66.042704     15.881459
  H      -1.431559    -64.401423     15.224527
  C      -2.472091    -66.384810      9.583778
  H      -1.885130    -66.631108      8.696671
  H      -3.034137    -67.274082      9.875612
  H      -3.193251    -65.614204      9.301126
18
Coordinates from ORCA-job 16 Relaxed Surface Scan Step 23
  C      -1.565172    -65.927389     10.728821
  H      -0.962522    -65.079513     10.386983
  H      -0.861738    -66.724034     10.981268
  C      -2.327867    -65.520216     11.960285
  H      -3.028168    -64.696695     11.832240
  C      -2.219419    -66.081605     13.154495
  H      -1.518889    -66.904954     13.282350
  C      -2.982888    -65.675921     14.385891
  H      -3.684178    -64.877471     14.132511
  H      -3.585898    -66.524817     14.724424
  C      -2.077013    -65.221759     15.531305
  H      -2.653715    -65.029610     16.438085
  H      -1.324031    -65.978239     15.764849
  H      -1.546343    -64.304920     15.266731
  C      -2.472458    -66.381887      9.584874
  H      -1.887405    -66.641113      8.700195
  H      -3.056474    -67.258008      9.873321
  H      -3.174094    -65.594375      9.299701
18
Coordinates from ORCA-job 16 Relaxed Surface Scan Step 24
  C      -1.560285    -65.946846     10.732691
  H      -0.936768    -65.112851     10.394144
  H      -0.876511    -66.759767     10.987268
  C      -2.318398    -65.523206     11.961411
  H      -2.999326    -64.683919     11.831239
  C      -2.227596    -66.087690     13.155633
  H      -1.546381    -66.926659     13.286022
  C      -2.987589    -65.667680     14.384212
  H      -3.673886    -64.857628     14.124702
  H      -3.602313    -66.508853     14.720075
  C      -2.080468    -65.217350     15.532176
  H      -2.625057    -65.167453     16.476550
  H      -1.227824    -65.888297     15.659717
  H      -1.668547    -64.226496     15.328635
  C      -2.473124    -66.379261      9.584614
  H      -1.890592    -66.651184      8.702086
  H      -3.078420    -67.241895      9.869826
  H      -3.155188    -65.575490      9.297329
