24
Coordinates from ORCA-job 18 Relaxed Surface Scan Step 1
  C     -61.781251    -76.233926     -6.252308
  H     -61.599518    -75.440089     -5.524355
  C     -63.297669    -76.510574     -6.194115
  H     -63.476570    -77.219986     -5.381404
  O     -61.507700    -75.739915     -7.535269
  H     -60.668132    -75.307064     -7.548784
  C     -63.792098    -77.186169     -7.462538
  O     -64.621505    -76.749853     -8.182592
  O     -63.230098    -78.367941     -7.683027
  H     -63.574667    -78.713620     -8.497751
  C     -64.093006    -75.232607     -5.938297
  H     -65.163981    -75.427695     -5.935426
  H     -63.818088    -74.807388     -4.971650
  H     -63.889898    -74.496657     -6.714915
  C     -60.901804    -77.433732     -5.861119
  H     -60.862147    -77.471463     -4.766717
  H     -61.358173    -78.362919     -6.197132
  C     -59.478397    -77.368870     -6.411446
  H     -59.529252    -77.428208     -7.501333
  H     -59.019106    -76.403663     -6.165589
  C     -58.586712    -78.488645     -5.885053
  H     -59.001424    -79.468849     -6.130754
  H     -57.586489    -78.433419     -6.318641
  H     -58.481421    -78.436706     -4.798863
24
Coordinates from ORCA-job 18 Relaxed Surface Scan Step 2
  C     -61.774661    -76.278407     -6.334934
  H     -61.525391    -75.485949     -5.622015
  C     -63.293496    -76.509334     -6.192480
  H     -63.449854    -77.198752     -5.358612
  O     -61.557007    -75.808935     -7.637393
  H     -60.696186    -75.429328     -7.713524
  C     -63.878558    -77.190581     -7.418156
  O     -64.710088    -76.727641     -8.118797
  O     -63.397563    -78.410941     -7.620698
  H     -63.797033    -78.760890     -8.408103
  C     -64.033559    -75.201916     -5.918683
  H     -65.108415    -75.362492     -5.854059
  H     -63.693420    -74.768834     -4.976625
  H     -63.850359    -74.486909     -6.719299
  C     -60.908585    -77.492760     -5.991994
  H     -61.016888    -77.685362     -4.919343
  H     -61.277493    -78.373674     -6.514676
  C     -59.428565    -77.299325     -6.319126
  H     -59.316330    -77.205681     -7.402838
  H     -59.067141    -76.361659     -5.880457
  C     -58.553834    -78.448968     -5.829082
  H     -58.872687    -79.398226     -6.265194
  H     -57.508138    -78.293029     -6.100440
  H     -58.603854    -78.550362     -4.742549
24
Coordinates from ORCA-job 18 Relaxed Surface Scan Step 3
  C     -61.767713    -76.292424     -6.397348
  H     -61.464305    -75.509858     -5.691972
  C     -63.282275    -76.489598     -6.182353
  H     -63.414281    -77.127987     -5.305148
  O     -61.611508    -75.824186     -7.708953
  H     -60.737953    -75.498719     -7.849635
  C     -63.932369    -77.227868     -7.339761
  O     -64.782031    -76.789429     -8.034339
  O     -63.486637    -78.470058     -7.483823
  H     -63.929630    -78.860625     -8.227650
  C     -63.987521    -75.154817     -5.951208
  H     -65.060462    -75.292406     -5.827525
  H     -63.596843    -74.675293     -5.052239
  H     -63.831071    -74.490252     -6.799100
  C     -60.903119    -77.520047     -6.113045
  H     -61.146237    -77.883977     -5.110339
  H     -61.161466    -78.316309     -6.809357
  C     -59.402375    -77.236633     -6.185435
  H     -59.137556    -76.899905     -7.192443
  H     -59.149785    -76.413828     -5.507950
  C     -58.548519    -78.452637     -5.839573
  H     -58.752924    -79.283202     -6.518664
  H     -57.484183    -78.220543     -5.908097
  H     -58.748341    -78.799356     -4.823121
24
Coordinates from ORCA-job 18 Relaxed Surface Scan Step 4
  C     -61.758655    -76.287746     -6.451119
  H     -61.407078    -75.517444     -5.754398
  C     -63.264566    -76.452257     -6.169387
  H     -63.364931    -77.019561     -5.240567
  O     -61.657276    -75.811520     -7.765256
  H     -60.768732    -75.578782     -7.976533
  C     -63.963960    -77.273255     -7.237953
  O     -64.847215    -76.890203     -7.923356
  O     -63.515764    -78.520993     -7.310631
  H     -63.992956    -78.969507     -7.998458
  C     -63.951838    -75.097641     -6.012086
  H     -65.016651    -75.218567     -5.819178
  H     -63.511945    -74.549524     -5.177326
  H     -63.839748    -74.505109     -6.917772
  C     -60.898195    -77.533898     -6.225206
  H     -61.264009    -78.069890     -5.346204
  H     -61.025606    -78.208139     -7.071371
  C     -59.415808    -77.213501     -6.022370
  H     -59.038268    -76.606929     -6.852521
  H     -59.299650    -76.595218     -5.126665
  C     -58.546770    -78.459939     -5.891048
  H     -58.601536    -79.076044     -6.791240
  H     -57.499659    -78.197462     -5.729693
  H     -58.868286    -79.076828     -5.048736
24
Coordinates from ORCA-job 18 Relaxed Surface Scan Step 5
  C     -61.748454    -76.289810     -6.546915
  H     -61.341193    -75.502994     -5.902074
  C     -63.232049    -76.433321     -6.159978
  H     -63.273466    -76.970726     -5.208779
  O     -61.741260    -75.844306     -7.876699
  H     -60.864487    -75.666731     -8.173318
  C     -63.998766    -77.286124     -7.155009
  O     -64.957312    -76.940165     -7.753573
  O     -63.511442    -78.515679     -7.268570
  H     -64.032632    -78.985171     -7.908725
  C     -63.904740    -75.072197     -6.000188
  H     -64.954015    -75.183354     -5.731751
  H     -63.408001    -74.499230     -5.215477
  H     -63.853441    -74.508802     -6.929704
  C     -60.879237    -77.541738     -6.348478
  H     -61.333828    -78.199748     -5.606688
  H     -60.873328    -78.106300     -7.281579
  C     -59.449360    -77.219559     -5.906877
  H     -59.002207    -76.468888     -6.567403
  H     -59.479136    -76.753765     -4.916863
  C     -58.544881    -78.446137     -5.859476
  H     -58.451388    -78.907007     -6.845429
  H     -57.541796    -78.185772     -5.516702
  H     -58.942683    -79.202434     -5.178824
24
Coordinates from ORCA-job 18 Relaxed Surface Scan Step 6
  C     -61.736764    -76.292748     -6.676172
  H     -61.286128    -75.476937     -6.101142
  C     -63.178978    -76.435632     -6.156185
  H     -63.136645    -76.971850     -5.204047
  O     -61.853337    -75.893236     -8.015639
  H     -61.006447    -75.720224     -8.392296
  C     -64.026952    -77.290590     -7.082052
  O     -65.054472    -76.958828     -7.562824
  O     -63.523018    -78.502024     -7.280828
  H     -64.097240    -78.969708     -7.875262
  C     -63.838634    -75.076089     -5.939502
  H     -64.861893    -75.188974     -5.585604
  H     -63.279243    -74.502872     -5.198350
  H     -63.865203    -74.511658     -6.869750
  C     -60.836703    -77.533916     -6.503103
  H     -61.347602    -78.299533     -5.920448
  H     -60.677291    -77.978424     -7.487606
  C     -59.495055    -77.221254     -5.837288
  H     -58.988131    -76.408892     -6.368778
  H     -59.678219    -76.840310     -4.827389
  C     -58.567319    -78.428575     -5.758705
  H     -58.324834    -78.806459     -6.754669
  H     -57.629243    -78.175530     -5.261266
  H     -59.029753    -79.245694     -5.200173
24
Coordinates from ORCA-job 18 Relaxed Surface Scan Step 7
  C     -61.722224    -76.288063     -6.817543
  H     -61.253494    -75.437300     -6.312291
  C     -63.105874    -76.451164     -6.159574
  H     -62.966518    -76.997206     -5.222148
  O     -61.965346    -75.944267     -8.154718
  H     -61.153700    -75.761584     -8.600642
  C     -64.034240    -77.301966     -7.010135
  O     -65.098287    -76.963636     -7.397814
  O     -63.556688    -78.515206     -7.256248
  H     -64.181984    -78.975900     -7.802722
  C     -63.753063    -75.100087     -5.865037
  H     -64.739826    -75.224878     -5.422712
  H     -63.133113    -74.531993     -5.169582
  H     -63.866902    -74.524030     -6.781807
  C     -60.772920    -77.497466     -6.678338
  H     -61.307869    -78.365933     -6.298131
  H     -60.433693    -77.780490     -7.678115
  C     -59.561505    -77.214289     -5.790314
  H     -58.998597    -76.370018     -6.203022
  H     -59.902104    -76.893487     -4.800326
  C     -58.632841    -78.413960     -5.638392
  H     -58.242955    -78.737011     -6.606572
  H     -57.780333    -78.176040     -4.999598
  H     -59.155029    -79.263983     -5.193298
24
Coordinates from ORCA-job 18 Relaxed Surface Scan Step 8
  C     -61.705960    -76.264700     -6.938136
  H     -61.240078    -75.376361     -6.499298
  C     -63.026553    -76.456903     -6.164251
  H     -62.797718    -76.999477     -5.242820
  O     -62.056958    -75.991846     -8.266406
  H     -61.281285    -75.811811     -8.774699
  C     -64.007465    -77.324897     -6.934745
  O     -65.084670    -76.985177     -7.282224
  O     -63.560018    -78.554660     -7.156305
  H     -64.217281    -79.024794     -7.655274
  C     -63.673487    -75.118049     -5.816847
  H     -64.620153    -75.260150     -5.298338
  H     -63.011276    -74.538524     -5.171669
  H     -63.870166    -74.544585     -6.721309
  C     -60.704824    -77.427643     -6.829232
  H     -61.231449    -78.366672     -6.667907
  H     -60.199526    -77.530339     -7.794314
  C     -59.647856    -77.216986     -5.746504
  H     -59.046120    -76.340147     -6.010165
  H     -60.132164    -76.981138     -4.793255
  C     -58.729325    -78.419696     -5.559365
  H     -58.206451    -78.665309     -6.486814
  H     -57.975031    -78.225983     -4.794592
  H     -59.293291    -79.304111     -5.254609
24
Coordinates from ORCA-job 18 Relaxed Surface Scan Step 9
  C     -61.693256    -76.238345     -7.008750
  H     -61.229371    -75.319048     -6.635823
  C     -62.970011    -76.431926     -6.162958
  H     -62.688436    -76.938107     -5.236367
  O     -62.117239    -76.042453     -8.329217
  H     -61.374002    -75.872710     -8.886744
  C     -63.968761    -77.344990     -6.853520
  O     -65.059218    -77.031774     -7.183821
  O     -63.519698    -78.583404     -7.019085
  H     -64.189416    -79.084760     -7.468732
  C     -63.627283    -75.094119     -5.830318
  H     -64.545498    -75.235870     -5.262709
  H     -62.947642    -74.480113     -5.237304
  H     -63.878177    -74.556388     -6.743297
  C     -60.656288    -77.362480     -6.910067
  H     -61.155204    -78.329838     -6.940732
  H     -60.028919    -77.311659     -7.806552
  C     -59.746456    -77.262543     -5.686872
  H     -59.167697    -76.335087     -5.752018
  H     -60.345946    -77.186423     -4.774755
  C     -58.788669    -78.442678     -5.556945
  H     -58.149911    -78.532346     -6.438867
  H     -58.138961    -78.329809     -4.687177
  H     -59.333046    -79.383086     -5.446447
24
Coordinates from ORCA-job 18 Relaxed Surface Scan Step 10
  C     -61.679411    -76.206988     -7.028861
  H     -61.202931    -75.279019     -6.693561
  C     -62.939135    -76.370108     -6.152633
  H     -62.634320    -76.792487     -5.193147
  O     -62.136058    -76.049722     -8.343927
  H     -61.409555    -75.900928     -8.928210
  C     -63.923943    -77.359213     -6.750924
  O     -65.023283    -77.100324     -7.098096
  O     -63.449318    -78.598497     -6.808282
  H     -64.113600    -79.153467     -7.199293
  C     -63.624993    -75.025697     -5.916747
  H     -64.529650    -75.144418     -5.322565
  H     -62.952046    -74.350063     -5.386444
  H     -63.904308    -74.569128     -6.864594
  C     -60.632725    -77.320037     -6.943810
  H     -61.099318    -78.279683     -7.159950
  H     -59.911728    -77.136013     -7.748992
  C     -59.863227    -77.383773     -5.625758
  H     -59.390427    -76.414708     -5.435270
  H     -60.551001    -77.558472     -4.794534
  C     -58.794373    -78.472766     -5.617354
  H     -58.058626    -78.312526     -6.409027
  H     -58.259054    -78.492101     -4.666379
  H     -59.236074    -79.459819     -5.770718
24
Coordinates from ORCA-job 18 Relaxed Surface Scan Step 11
  C     -61.654611    -76.150185     -7.040020
  H     -61.155888    -75.230973     -6.710461
  C     -62.898263    -76.288244     -6.139758
  H     -62.560489    -76.591112     -5.147086
  O     -62.132376    -75.985512     -8.346025
  H     -61.415475    -75.861708     -8.947374
  C     -63.838233    -77.381087     -6.614106
  O     -64.946614    -77.216441     -6.988499
  O     -63.306246    -78.595884     -6.524906
  H     -63.945424    -79.225146     -6.837400
  C     -63.646465    -74.960722     -6.029745
  H     -64.524913    -75.058923     -5.393526
  H     -62.994838    -74.199081     -5.598567
  H     -63.976846    -74.624652     -7.010103
  C     -60.614838    -77.271966     -6.988943
  H     -61.044407    -78.185716     -7.396966
  H     -59.810330    -76.974696     -7.672711
  C     -60.006054    -77.546748     -5.615687
  H     -59.676736    -76.605829     -5.162100
  H     -60.768762    -77.959873     -4.952546
  C     -58.828510    -78.515245     -5.674319
  H     -58.015775    -78.117288     -6.286586
  H     -58.428335    -78.709360     -4.677602
  H     -59.128676    -79.473567     -6.104041
24
Coordinates from ORCA-job 18 Relaxed Surface Scan Step 12
  C     -61.652046    -76.165329     -7.087416
  H     -61.131548    -75.235787     -6.822475
  C     -62.857733    -76.266733     -6.132532
  H     -62.488955    -76.553695     -5.146509
  O     -62.197821    -76.050739     -8.372359
  H     -61.520877    -75.980448     -9.024576
  C     -63.825766    -77.357946     -6.551099
  O     -64.963819    -77.195810     -6.824288
  O     -63.278123    -78.568661     -6.539343
  H     -63.936078    -79.196215     -6.813764
  C     -63.586256    -74.928630     -6.020683
  H     -64.441241    -75.004545     -5.350677
  H     -62.910204    -74.166817     -5.629196
  H     -63.949487    -74.606687     -6.994343
  C     -60.600816    -77.279282     -7.030592
  H     -60.977530    -78.168301     -7.534693
  H     -59.748447    -76.927986     -7.624602
  C     -60.112026    -77.645572     -5.628993
  H     -59.965524    -76.738443     -5.032846
  H     -60.888263    -78.219344     -5.120100
  C     -58.821771    -78.459192     -5.641823
  H     -57.999296    -77.895688     -6.088733
  H     -58.521847    -78.738309     -4.630142
  H     -58.943628    -79.379798     -6.217290
24
Coordinates from ORCA-job 18 Relaxed Surface Scan Step 13
  C     -61.640920    -76.134169     -7.082395
  H     -61.135828    -75.200795     -6.816735
  C     -62.847798    -76.251658     -6.125284
  H     -62.489493    -76.568082     -5.143405
  O     -62.143945    -75.982033     -8.383788
  H     -61.812062    -76.654541     -8.954095
  C     -63.827590    -77.318140     -6.572792
  O     -64.987845    -77.161623     -6.733374
  O     -63.260404    -78.509786     -6.741505
  H     -63.934873    -79.125123     -7.003813
  C     -63.560499    -74.908140     -5.980572
  H     -64.427596    -74.992292     -5.328019
  H     -62.879527    -74.169003     -5.555927
  H     -63.901603    -74.548824     -6.950099
  C     -60.566764    -77.226986     -7.026849
  H     -60.900816    -78.110628     -7.573655
  H     -59.704826    -76.834180     -7.576026
  C     -60.120503    -77.644427     -5.625773
  H     -60.003795    -76.759396     -4.991915
  H     -60.904689    -78.247310     -5.164761
  C     -58.819191    -78.440204     -5.631052
  H     -57.991762    -77.847974     -6.028480
  H     -58.547368    -78.756156     -4.622367
  H     -58.909407    -79.338488     -6.246397
24
Coordinates from ORCA-job 18 Relaxed Surface Scan Step 14
  C     -61.585786    -76.139987     -7.083599
  H     -61.090238    -75.212374     -6.791014
  C     -62.811082    -76.259542     -6.152978
  H     -62.462938    -76.500685     -5.146604
  O     -61.979526    -75.941761     -8.409485
  H     -62.354461    -76.744691     -8.738193
  C     -63.792779    -77.373707     -6.478727
  O     -64.837338    -77.512126     -5.943005
  O     -63.388702    -78.220340     -7.423571
  H     -64.058590    -78.885459     -7.537124
  C     -63.573706    -74.930793     -6.070037
  H     -64.444333    -75.025042     -5.424649
  H     -62.923927    -74.154915     -5.664135
  H     -63.900850    -74.612814     -7.059785
  C     -60.523361    -77.243220     -6.990512
  H     -60.864231    -78.140852     -7.509242
  H     -59.667193    -76.877048     -7.563509
  C     -60.069487    -77.610011     -5.577542
  H     -59.907526    -76.700855     -4.988898
  H     -60.864547    -78.159266     -5.065819
  C     -58.800584    -78.456310     -5.562340
  H     -57.960351    -77.918366     -6.006872
  H     -58.520037    -78.728897     -4.543385
  H     -58.937532    -79.380896     -6.128053
24
Coordinates from ORCA-job 18 Relaxed Surface Scan Step 15
  C     -61.496649    -76.067535     -7.080004
  H     -60.974025    -75.150160     -6.795534
  C     -62.710195    -76.185392     -6.127841
  H     -62.346294    -76.201544     -5.103651
  O     -61.899230    -75.870401     -8.400878
  H     -62.534079    -76.534754     -8.627584
  C     -63.481568    -77.479357     -6.281170
  O     -63.763080    -78.219516     -5.403853
  O     -63.857816    -77.720422     -7.538900
  H     -64.350171    -78.533343     -7.563292
  C     -63.664849    -74.992905     -6.281325
  H     -64.485422    -75.059705     -5.565189
  H     -63.126078    -74.064276     -6.090628
  H     -64.079589    -74.938350     -7.285511
  C     -60.474810    -77.210632     -6.988240
  H     -60.806870    -78.048209     -7.610233
  H     -59.564936    -76.848143     -7.473057
  C     -60.151905    -77.700562     -5.573610
  H     -60.073295    -76.847984     -4.891406
  H     -60.981172    -78.298638     -5.191307
  C     -58.872262    -78.527915     -5.508422
  H     -58.003333    -77.940849     -5.814483
  H     -58.689472    -78.891727     -4.495807
  H     -58.932003    -79.397640     -6.167151
24
Coordinates from ORCA-job 18 Relaxed Surface Scan Step 16
  C     -61.498944    -76.033459     -7.115549
  H     -61.014067    -75.077671     -6.900129
  C     -62.680485    -76.134343     -6.122303
  H     -62.292165    -76.085460     -5.108120
  O     -61.953253    -75.926687     -8.430294
  H     -62.543769    -76.647793     -8.596752
  C     -63.455462    -77.434542     -6.172653
  O     -63.843466    -78.033841     -5.231246
  O     -63.715563    -77.850453     -7.414037
  H     -64.227118    -78.650645     -7.371019
  C     -63.663815    -74.967966     -6.309002
  H     -64.458723    -75.012014     -5.563367
  H     -63.138265    -74.020306     -6.188129
  H     -64.110289    -74.977410     -7.301303
  C     -60.409979    -77.123851     -7.003615
  H     -60.592090    -77.884263     -7.768419
  H     -59.468771    -76.656818     -7.304404
  C     -60.228675    -77.790297     -5.636258
  H     -60.272342    -77.043083     -4.839054
  H     -61.062414    -78.466073     -5.435763
  C     -58.925220    -78.575255     -5.531407
  H     -58.057744    -77.921919     -5.649619
  H     -58.840497    -79.070325     -4.562472
  H     -58.865985    -79.345482     -6.304163
24
Coordinates from ORCA-job 18 Relaxed Surface Scan Step 17
  C     -61.511861    -75.986238     -7.142768
  H     -61.094775    -74.985887     -7.022454
  C     -62.662702    -76.055576     -6.115149
  H     -62.250829    -75.913456     -5.117608
  O     -61.996931    -76.011296     -8.452075
  H     -62.466497    -76.821732     -8.584175
  C     -63.412786    -77.368912     -6.037759
  O     -63.924817    -77.794622     -5.061930
  O     -63.501042    -78.010990     -7.204176
  H     -64.012691    -78.802592     -7.080413
  C     -63.688915    -74.936976     -6.360879
  H     -64.459504    -74.948412     -5.589901
  H     -63.192495    -73.966602     -6.333496
  H     -64.161136    -75.041833     -7.336118
  C     -60.341494    -76.993092     -6.964247
  H     -60.313839    -77.622297     -7.856822
  H     -59.411164    -76.420704     -6.997139
  C     -60.311019    -77.885119     -5.720163
  H     -60.454796    -77.290686     -4.814836
  H     -61.138492    -78.597057     -5.744010
  C     -59.006046    -78.667122     -5.603034
  H     -58.148644    -77.996347     -5.512447
  H     -59.014535    -79.316650     -4.726034
  H     -58.842092    -79.295760     -6.481443
24
Coordinates from ORCA-job 18 Relaxed Surface Scan Step 18
  C     -61.516460    -75.980398     -7.159042
  H     -61.160628    -74.952078     -7.147148
  C     -62.653413    -75.995164     -6.114320
  H     -62.226147    -75.760188     -5.139969
  O     -61.994535    -76.157408     -8.460250
  H     -62.395650    -77.007860     -8.550278
  C     -63.372507    -77.312367     -5.913582
  O     -63.785420    -77.702936     -4.877700
  O     -63.566966    -77.998809     -7.041128
  H     -64.059464    -78.785615     -6.836213
  C     -63.711607    -74.928571     -6.441555
  H     -64.482802    -74.901564     -5.671115
  H     -63.244566    -73.944486     -6.489490
  H     -64.179080    -75.124217     -7.404970
  C     -60.281025    -76.876840     -6.868315
  H     -60.009143    -77.331841     -7.821727
  H     -59.446960    -76.221694     -6.604056
  C     -60.355988    -77.975734     -5.805505
  H     -60.601920    -77.546855     -4.831069
  H     -61.146161    -78.690194     -6.043907
  C     -59.037958    -78.736475     -5.683343
  H     -58.221186    -78.069671     -5.397425
  H     -59.106260    -79.520671     -4.927369
  H     -58.763257    -79.208323     -6.629601
24
Coordinates from ORCA-job 18 Relaxed Surface Scan Step 19
  C     -61.512398    -75.993283     -7.152933
  H     -61.189816    -74.958159     -7.245554
  C     -62.654046    -75.938921     -6.114488
  H     -62.228264    -75.619320     -5.163291
  O     -61.962187    -76.322265     -8.434551
  H     -62.356034    -77.179719     -8.453300
  C     -63.350292    -77.247129     -5.803583
  O     -63.667466    -77.602785     -4.722041
  O     -63.647121    -77.968347     -6.885639
  H     -64.119601    -78.745963     -6.610522
  C     -63.727696    -74.921177     -6.533267
  H     -64.514885    -74.854857     -5.781117
  H     -63.280139    -73.932835     -6.641559
  H     -64.172367    -75.195528     -7.488172
  C     -60.250441    -76.785690     -6.748337
  H     -59.758497    -77.035626     -7.688878
  H     -59.579110    -76.103271     -6.219188
  C     -60.375494    -78.055937     -5.904686
  H     -60.722488    -77.800122     -4.900224
  H     -61.113084    -78.736892     -6.335974
  C     -59.043160    -78.791047     -5.782182
  H     -58.279201    -78.151522     -5.333757
  H     -59.140647    -79.679616     -5.155956
  H     -58.674670    -79.109945     -6.759877
24
Coordinates from ORCA-job 18 Relaxed Surface Scan Step 20
  C     -61.506092    -76.008233     -7.134269
  H     -61.191041    -74.980414     -7.311538
  C     -62.656876    -75.881741     -6.110803
  H     -62.238566    -75.483037     -5.186758
  O     -61.935827    -76.463994     -8.382472
  H     -62.377722    -77.294875     -8.310189
  C     -63.334353    -77.171518     -5.698677
  O     -63.592960    -77.476430     -4.586283
  O     -63.684358    -77.943052     -6.728636
  H     -64.136165    -78.709689     -6.394252
  C     -63.738188    -74.913845     -6.617689
  H     -64.536678    -74.801409     -5.882863
  H     -63.301950    -73.930235     -6.793769
  H     -64.167389    -75.264713     -7.554382
  C     -60.245055    -76.739028     -6.650061
  H     -59.601055    -76.805034     -7.529066
  H     -59.731047    -76.092903     -5.931805
  C     -60.382542    -78.132275     -6.033988
  H     -60.860620    -78.058196     -5.054064
  H     -61.024132    -78.761612     -6.656324
  C     -59.031458    -78.821441     -5.861795
  H     -58.363923    -78.228522     -5.232028
  H     -59.145433    -79.800611     -5.393220
  H     -58.535674    -78.967147     -6.824147
24
Coordinates from ORCA-job 18 Relaxed Surface Scan Step 21
  C     -61.507562    -76.021784     -7.120845
  H     -61.186732    -75.009005     -7.367623
  C     -62.657803    -75.823845     -6.106682
  H     -62.239143    -75.350599     -5.219205
  O     -61.939944    -76.569065     -8.329530
  H     -62.431153    -77.361488     -8.178076
  C     -63.308731    -77.090046     -5.593971
  O     -63.504623    -77.344034     -4.456325
  O     -63.704321    -77.911553     -6.567485
  H     -64.129223    -78.666925     -6.176904
  C     -63.750358    -74.909940     -6.683053
  H     -64.546867    -74.747294     -5.955320
  H     -63.324097    -73.939151     -6.937390
  H     -64.181651    -75.335718     -7.586992
  C     -60.256663    -76.729413     -6.583884
  H     -59.505344    -76.639584     -7.372259
  H     -59.878056    -76.162126     -5.727955
  C     -60.376667    -78.204638     -6.197634
  H     -61.009410    -78.316879     -5.314542
  H     -60.857698    -78.759557     -7.006936
  C     -59.019133    -78.836882     -5.901933
  H     -58.512125    -78.319547     -5.084035
  H     -59.126596    -79.884404     -5.614587
  H     -58.365206    -78.796478     -6.775910
24
Coordinates from ORCA-job 18 Relaxed Surface Scan Step 22
  C     -61.517628    -76.036423     -7.122715
  H     -61.189318    -75.042107     -7.428837
  C     -62.654390    -75.772394     -6.106985
  H     -62.222765    -75.233114     -5.265020
  O     -61.973174    -76.645320     -8.292064
  H     -62.486321    -77.410751     -8.081658
  C     -63.263389    -77.014058     -5.495036
  O     -63.349562    -77.237516     -4.337875
  O     -63.745987    -77.861716     -6.405891
  H     -64.134460    -78.605152     -5.958693
  C     -63.766237    -74.913659     -6.726558
  H     -64.549221    -74.703000     -5.996196
  H     -63.353913    -73.961054     -7.060461
  H     -64.213746    -75.407053     -7.586823
  C     -60.276330    -76.738144     -6.547338
  H     -59.446692    -76.511753     -7.221786
  H     -60.024139    -76.274213     -5.589016
  C     -60.345395    -78.257785     -6.383372
  H     -61.129221    -78.541066     -5.678345
  H     -60.609361    -78.707988     -7.342816
  C     -59.023466    -78.848874     -5.901361
  H     -58.739263    -78.443124     -4.927713
  H     -59.091053    -79.933687     -5.800950
  H     -58.214072    -78.630006     -6.601568
24
Coordinates from ORCA-job 18 Relaxed Surface Scan Step 23
  C     -61.527958    -76.044296     -7.133588
  H     -61.192641    -75.070928     -7.493307
  C     -62.648236    -75.722625     -6.115425
  H     -62.203562    -75.118063     -5.326375
  O     -62.010331    -76.700684     -8.265741
  H     -62.515776    -77.457870     -8.010554
  C     -63.193554    -76.939735     -5.402774
  O     -63.157347    -77.128071     -4.236834
  O     -63.757675    -77.819040     -6.233903
  H     -64.094195    -78.548986     -5.726498
  C     -63.791178    -74.931400     -6.763307
  H     -64.554989    -74.675436     -6.026947
  H     -63.404268    -74.001695     -7.181775
  H     -64.258068    -75.494174     -7.568532
  C     -60.298917    -76.745440     -6.516774
  H     -59.411102    -76.393269     -7.047263
  H     -60.181310    -76.409595     -5.482570
  C     -60.294118    -78.275129     -6.568098
  H     -61.191015    -78.688026     -6.100915
  H     -60.324003    -78.590302     -7.612661
  C     -59.065967    -78.876608     -5.891925
  H     -59.029886    -78.618657     -4.831113
  H     -59.068691    -79.965491     -5.968742
  H     -58.144317    -78.514437     -6.353455
24
Coordinates from ORCA-job 18 Relaxed Surface Scan Step 24
  C     -61.547392    -76.079152     -7.122505
  H     -61.182808    -75.142289     -7.543694
  C     -62.658463    -75.671104     -6.126655
  H     -62.204195    -75.014246     -5.386069
  O     -62.051734    -76.785090     -8.214391
  H     -62.565515    -77.520015     -7.915019
  C     -63.193920    -76.837106     -5.325039
  O     -63.168297    -76.933068     -4.147649
  O     -63.730787    -77.790924     -6.089820
  H     -64.057876    -78.485862     -5.529725
  C     -63.804799    -74.924008     -6.817693
  H     -64.553887    -74.602480     -6.092040
  H     -63.416900    -74.034879     -7.315909
  H     -64.289933    -75.544225     -7.568147
  C     -60.347999    -76.784025     -6.435200
  H     -59.425690    -76.304548     -6.770461
  H     -60.392252    -76.606746     -5.357042
  C     -60.220349    -78.286490     -6.696610
  H     -61.138694    -78.806929     -6.411768
  H     -60.103478    -78.450665     -7.768686
  C     -59.045131    -78.909977     -5.950395
  H     -59.156018    -78.801480     -4.868985
  H     -58.961484    -79.975981     -6.170257
  H     -58.101503    -78.438671     -6.235320
