18
Coordinates from ORCA-job 3 Relaxed Surface Scan Step 1
  C      -3.680270      1.112069     -0.000093
  H      -3.658166      1.532282      1.005733
  H      -2.919645      1.634107     -0.586079
  H      -4.652314      1.348462     -0.436473
  C      -3.430001     -0.377379      0.026186
  H      -3.050125     -0.782670      0.958581
  C      -3.621963     -1.189582     -1.001878
  H      -3.997791     -0.757172     -1.926821
  C      -3.345093     -2.676320     -1.051001
  H      -3.951134     -3.112197     -1.849546
  H      -2.304312     -2.831588     -1.357931
  C      -3.605807     -3.450158      0.242667
  H      -2.998952     -3.039426      1.052312
  H      -4.648701     -3.308730      0.538493
  C      -3.308332     -4.940571      0.107908
  H      -3.516290     -5.469496      1.040027
  H      -3.918228     -5.398029     -0.674944
  H      -2.259927     -5.115226     -0.145764
18
Coordinates from ORCA-job 3 Relaxed Surface Scan Step 2
  C      -3.645166      1.115832     -0.012369
  H      -4.157308      1.375529      0.917807
  H      -2.738189      1.724572     -0.056754
  H      -4.287548      1.403325     -0.845391
  C      -3.310743     -0.347515     -0.053195
  H      -2.669843     -0.703782      0.749528
  C      -3.728032     -1.201259     -0.975439
  H      -4.360795     -0.819947     -1.772663
  C      -3.389830     -2.676352     -1.042557
  H      -3.986342     -3.133593     -1.835843
  H      -2.346980     -2.796847     -1.355174
  C      -3.618826     -3.459155      0.253488
  H      -3.008255     -3.034435      1.053786
  H      -4.658559     -3.331937      0.566813
  C      -3.301804     -4.944531      0.114460
  H      -3.476139     -5.474585      1.052828
  H      -3.924815     -5.413330     -0.651164
  H      -2.257875     -5.103611     -0.166783
18
Coordinates from ORCA-job 3 Relaxed Surface Scan Step 3
  C      -3.634868      1.127298     -0.020226
  H      -4.001041      1.373461      0.979972
  H      -2.782962      1.783294     -0.217798
  H      -4.420774      1.366883     -0.737374
  C      -3.233076     -0.316670     -0.106220
  H      -2.451970     -0.630958      0.583220
  C      -3.750150     -1.209082     -0.936447
  H      -4.529195     -0.883371     -1.620971
  C      -3.347859     -2.667007     -1.014936
  H      -3.842003     -3.123034     -1.876479
  H      -2.273524     -2.743816     -1.208225
  C      -3.686520     -3.482590      0.237597
  H      -3.163482     -3.051175      1.095169
  H      -4.754309     -3.385661      0.452679
  C      -3.320231     -4.957396      0.108109
  H      -3.568556     -5.506853      1.018295
  H      -3.855893     -5.428698     -0.719609
  H      -2.250638     -5.086249     -0.075378
18
Coordinates from ORCA-job 3 Relaxed Surface Scan Step 4
  C      -3.630252      1.149372     -0.040257
  H      -3.835285      1.404768      1.002712
  H      -2.863307      1.843711     -0.393397
  H      -4.538767      1.325618     -0.617223
  C      -3.166765     -0.272977     -0.164598
  H      -2.264545     -0.528190      0.388376
  C      -3.764357     -1.219015     -0.872173
  H      -4.670353     -0.965512     -1.417832
  C      -3.299736     -2.653888     -0.962875
  H      -3.680667     -3.095606     -1.888116
  H      -2.208910     -2.685484     -1.032740
  C      -3.745404     -3.516706      0.223192
  H      -3.311553     -3.098692      1.136078
  H      -4.830615     -3.442838      0.339214
  C      -3.342746     -4.981235      0.086856
  H      -3.663165     -5.560993      0.954735
  H      -3.791925     -5.435970     -0.799488
  H      -2.258699     -5.087988     -0.001088
18
Coordinates from ORCA-job 3 Relaxed Surface Scan Step 5
  C      -3.621739      1.183871     -0.074915
  H      -3.654768      1.481325      0.976492
  H      -2.965295      1.892906     -0.586127
  H      -4.624837      1.291365     -0.489138
  C      -3.113217     -0.221003     -0.220338
  H      -2.116575     -0.409388      0.173942
  C      -3.773656     -1.226696     -0.772708
  H      -4.774548     -1.045078     -1.159557
  C      -3.262256     -2.639385     -0.885330
  H      -3.536765     -3.044033     -1.864945
  H      -2.169839     -2.639607     -0.844136
  C      -3.805540     -3.564902      0.208761
  H      -3.479380     -3.178955      1.178852
  H      -4.898860     -3.519807      0.214009
  C      -3.355373     -5.013478      0.052156
  H      -3.748743     -5.638189      0.856478
  H      -3.699894     -5.436305     -0.894751
  H      -2.265766     -5.094264      0.072631
18
Coordinates from ORCA-job 3 Relaxed Surface Scan Step 6
  C      -3.610083      1.223025     -0.118254
  H      -3.468466      1.585821      0.903184
  H      -3.087468      1.919654     -0.779032
  H      -4.674682      1.270286     -0.350063
  C      -3.072943     -0.170282     -0.273182
  H      -2.014374     -0.297755     -0.057529
  C      -3.775646     -1.228984     -0.644726
  H      -4.835517     -1.103608     -0.858493
  C      -3.237186     -2.625892     -0.791366
  H      -3.420599     -2.974613     -1.813751
  H      -2.152261     -2.616777     -0.657864
  C      -3.865821     -3.619831      0.190152
  H      -3.665460     -3.281852      1.210718
  H      -4.953888     -3.603928      0.073016
  C      -3.357422     -5.046491      0.011874
  H      -3.821780     -5.723831      0.731205
  H      -3.577898     -5.424216     -0.989533
  H      -2.275557     -5.102353      0.155022
18
Coordinates from ORCA-job 3 Relaxed Surface Scan Step 7
  C      -3.602497      1.255436     -0.159389
  H      -3.295267      1.686916      0.796880
  H      -3.234301      1.923046     -0.942895
  H      -4.692408      1.257486     -0.197481
  C      -3.046738     -0.129087     -0.328269
  H      -1.962381     -0.209663     -0.302822
  C      -3.763836     -1.226870     -0.510644
  H      -4.847791     -1.139176     -0.541212
  C      -3.213449     -2.615421     -0.696539
  H      -3.314544     -2.902740     -1.749145
  H      -2.141593     -2.616871     -0.481705
  C      -3.919198     -3.667462      0.163123
  H      -3.849644     -3.382722      1.216538
  H      -4.986709     -3.667860     -0.078536
  C      -3.358578     -5.073057     -0.024957
  H      -3.888958     -5.796278      0.597476
  H      -3.448554     -5.400296     -1.063681
  H      -2.300602     -5.117005      0.244636
18
Coordinates from ORCA-job 3 Relaxed Surface Scan Step 8
  C      -3.604729      1.276948     -0.194545
  H      -3.153444      1.769236      0.670922
  H      -3.400733      1.909373     -1.062678
  H      -4.684370      1.247981     -0.043103
  C      -3.037489     -0.099821     -0.387366
  H      -1.962642     -0.149051     -0.547367
  C      -3.737196     -1.223561     -0.389192
  H      -4.812071     -1.161410     -0.237005
  C      -3.179410     -2.608338     -0.607175
  H      -3.192069     -2.839617     -1.677701
  H      -2.128434     -2.632173     -0.306910
  C      -3.958757     -3.699209      0.130075
  H      -4.005700     -3.462919      1.196729
  H      -4.994770     -3.694032     -0.222931
  C      -3.368912     -5.092540     -0.058290
  H      -3.958196     -5.845488      0.468520
  H      -3.341549     -5.371986     -1.114372
  H      -2.346581     -5.145017      0.323766
18
Coordinates from ORCA-job 3 Relaxed Surface Scan Step 9
  C      -3.617356      1.289281     -0.231595
  H      -3.052134      1.835979      0.527809
  H      -3.570992      1.880621     -1.149942
  H      -4.658723      1.242949      0.089014
  C      -3.045389     -0.082336     -0.445392
  H      -2.007073     -0.116431     -0.769069
  C      -3.700779     -1.220457     -0.281198
  H      -4.739605     -1.175106      0.037036
  C      -3.132619     -2.602971     -0.512937
  H      -3.042113     -2.786553     -1.588416
  H      -2.115518     -2.653700     -0.114210
  C      -3.981890     -3.715738      0.101503
  H      -4.116020     -3.526779      1.170580
  H      -4.984142     -3.680552     -0.336814
  C      -3.391013     -5.106695     -0.099435
  H      -4.029976     -5.874819      0.340309
  H      -3.276178     -5.338810     -1.161050
  H      -2.405530     -5.189505      0.365184
18
Coordinates from ORCA-job 3 Relaxed Surface Scan Step 10
  C      -3.633898      1.293058     -0.271354
  H      -2.981579      1.886452      0.374764
  H      -3.729078      1.838034     -1.214261
  H      -4.619300      1.245921      0.193578
  C      -3.065808     -0.078173     -0.496832
  H      -2.081028     -0.113489     -0.958963
  C      -3.661571     -1.217457     -0.182920
  H      -4.645856     -1.175970      0.278179
  C      -3.084440     -2.598233     -0.414056
  H      -2.887775     -2.740264     -1.481182
  H      -2.113425     -2.678493      0.084093
  C      -3.994916     -3.721707      0.079132
  H      -4.194857     -3.580260      1.145727
  H      -4.964241     -3.644313     -0.422997
  C      -3.415455     -5.113291     -0.148397
  H      -4.094142     -5.888017      0.213320
  H      -3.236182     -5.299032     -1.210180
  H      -2.463501     -5.236390      0.373726
18
Coordinates from ORCA-job 3 Relaxed Surface Scan Step 11
  C      -3.650055      1.289064     -0.308179
  H      -2.930714      1.919888      0.220760
  H      -3.873132      1.786406     -1.255803
  H      -4.567431      1.254618      0.280623
  C      -3.092606     -0.085509     -0.539344
  H      -2.173366     -0.133932     -1.120150
  C      -3.620333     -1.214366     -0.093495
  H      -4.537204     -1.163346      0.489936
  C      -3.042577     -2.594528     -0.320390
  H      -2.752049     -2.700945     -1.369670
  H      -2.122637     -2.707192      0.262851
  C      -4.003959     -3.720008      0.058256
  H      -4.263429     -3.621961      1.117179
  H      -4.938931     -3.599980     -0.497552
  C      -3.435612     -5.111570     -0.196215
  H      -4.147138     -5.887735      0.091873
  H      -3.198133     -5.255428     -1.253041
  H      -2.517744     -5.275101      0.373739
18
Coordinates from ORCA-job 3 Relaxed Surface Scan Step 12
  C      -3.666332      1.278899     -0.338644
  H      -2.897044      1.939044      0.070728
  H      -4.008115      1.730019     -1.273903
  H      -4.505746      1.264830      0.357488
  C      -3.122176     -0.100453     -0.573167
  H      -2.278696     -0.168619     -1.257392
  C      -3.574568     -1.211137     -0.013196
  H      -4.414053     -1.141209      0.675649
  C      -3.005839     -2.592466     -0.237532
  H      -2.636391     -2.671269     -1.263930
  H      -2.137132     -2.739266      0.413974
  C      -4.010513     -3.711426      0.035193
  H      -4.331586     -3.648575      1.079988
  H      -4.906810     -3.551142     -0.571593
  C      -3.452047     -5.103710     -0.237388
  H      -4.192438     -5.875939     -0.020150
  H      -3.155407     -5.213938     -1.283225
  H      -2.572156     -5.305266      0.378478
18
Coordinates from ORCA-job 3 Relaxed Surface Scan Step 13
  C      -3.683277      1.264978     -0.359656
  H      -2.878893      1.947223     -0.072112
  H      -4.138010      1.673074     -1.266131
  H      -4.434625      1.275403      0.430760
  C      -3.154125     -0.119444     -0.599106
  H      -2.397018     -0.210667     -1.375108
  C      -3.523609     -1.207813      0.057498
  H      -4.276181     -1.114172      0.838040
  C      -2.972261     -2.592280     -0.170496
  H      -2.538287     -2.649636     -1.172511
  H      -2.151861     -2.775546      0.533066
  C      -4.015141     -3.696845      0.004980
  H      -4.404695     -3.654816      1.027262
  H      -4.864766     -3.501897     -0.656105
  C      -3.465797     -5.093023     -0.266792
  H      -4.233500     -5.855081     -0.119721
  H      -3.101962     -5.183134     -1.293157
  H      -2.633043     -5.327949      0.400665
18
Coordinates from ORCA-job 3 Relaxed Surface Scan Step 14
  C      -3.703194      1.247892     -0.373292
  H      -2.879273      1.947496     -0.209467
  H      -4.265518      1.614619     -1.236022
  H      -4.357377      1.285246      0.498485
  C      -3.188352     -0.141109     -0.617520
  H      -2.527118     -0.258549     -1.473234
  C      -3.466309     -1.204526      0.120271
  H      -4.124259     -1.085307      0.979029
  C      -2.937078     -2.593813     -0.115672
  H      -2.447303     -2.635931     -1.092174
  H      -2.163728     -2.814977      0.629180
  C      -4.015800     -3.675938     -0.031930
  H      -4.479426     -3.640177      0.959075
  H      -4.809511     -3.449551     -0.749727
  C      -3.480198     -5.080785     -0.286727
  H      -4.274322     -5.825998     -0.210590
  H      -3.043009     -5.163484     -1.284709
  H      -2.705277     -5.346732      0.436402
18
Coordinates from ORCA-job 3 Relaxed Surface Scan Step 15
  C      -3.726934      1.227872     -0.380356
  H      -2.899140      1.940857     -0.341823
  H      -4.391152      1.554216     -1.184913
  H      -4.275307      1.294544      0.559940
  C      -3.225359     -0.165198     -0.628863
  H      -2.668789     -0.311838     -1.551827
  C      -3.403074     -1.201214      0.175916
  H      -3.959449     -1.055136      1.099944
  C      -2.898806     -2.596693     -0.070905
  H      -2.358179     -2.628112     -1.020488
  H      -2.172849     -2.857292      0.707709
  C      -4.011104     -3.649184     -0.076400
  H      -4.552992     -3.604261      0.873501
  H      -4.737959     -3.395416     -0.853128
  C      -3.496809     -5.067574     -0.298381
  H      -4.315744     -5.789486     -0.295232
  H      -2.980650     -5.156529     -1.257376
  H      -2.792755     -5.361180      0.484059
18
Coordinates from ORCA-job 3 Relaxed Surface Scan Step 16
  C      -3.754983      1.204239     -0.383568
  H      -2.939122      1.926386     -0.472426
  H      -4.514441      1.489895     -1.116119
  H      -4.189351      1.304618      0.611694
  C      -3.265931     -0.192988     -0.633308
  H      -2.822147     -0.373824     -1.609915
  C      -3.334866     -1.197430      0.226297
  H      -3.782983     -1.021226      1.202459
  C      -2.856873     -2.600615     -0.030420
  H      -2.265535     -2.626148     -0.949496
  H      -2.182310     -2.901102      0.778618
  C      -3.999620     -3.617037     -0.126561
  H      -4.620127     -3.550482      0.772415
  H      -4.649046     -3.339064     -0.961227
  C      -3.516667     -5.052281     -0.306524
  H      -4.357002     -5.745405     -0.379334
  H      -2.920034     -5.158555     -1.215832
  H      -2.896013     -5.370606      0.534625
18
Coordinates from ORCA-job 3 Relaxed Surface Scan Step 17
  C      -3.786739      1.175783     -0.387500
  H      -2.998663      1.900088     -0.609506
  H      -4.634482      1.419433     -1.033232
  H      -4.097179      1.319442      0.648014
  C      -3.311798     -0.227395     -0.630498
  H      -2.989973     -0.451693     -1.645470
  C      -3.263584     -1.192051      0.274832
  H      -3.594801     -0.976205      1.288802
  C      -2.812863     -2.605543      0.015280
  H      -2.165425     -2.632535     -0.865361
  H      -2.199423     -2.944645      0.855979
  C      -3.980771     -3.580022     -0.177868
  H      -4.675130     -3.486575      0.662576
  H      -4.545013     -3.277579     -1.064245
  C      -3.539104     -5.032682     -0.319724
  H      -4.395203     -5.692709     -0.472629
  H      -2.866065     -5.160610     -1.171113
  H      -3.010834     -5.376128      0.573040
18
Coordinates from ORCA-job 3 Relaxed Surface Scan Step 18
  C      -3.817685      1.144900     -0.393919
  H      -3.071720      1.856346     -0.757734
  H      -4.745486      1.352250     -0.933573
  H      -3.989174      1.344941      0.664333
  C      -3.368297     -0.269312     -0.620603
  H      -3.183347     -0.549721     -1.655991
  C      -3.194598     -1.183403      0.321055
  H      -3.391641     -0.912446      1.356174
  C      -2.775098     -2.611559      0.072234
  H      -2.062067     -2.650935     -0.756201
  H      -2.239815     -2.984352      0.950046
  C      -3.957203     -3.541479     -0.228708
  H      -4.718921     -3.423915      0.547535
  H      -4.430775     -3.214615     -1.158406
  C      -3.558319     -5.008788     -0.343620
  H      -4.420815     -5.635388     -0.579139
  H      -2.816137     -5.156961     -1.131982
  H      -3.125953     -5.377186      0.589877
18
Coordinates from ORCA-job 3 Relaxed Surface Scan Step 19
  C      -3.841327      1.116511     -0.404859
  H      -3.154032      1.788707     -0.925255
  H      -4.839241      1.306095     -0.808917
  H      -3.846127      1.387787      0.651418
  C      -3.444200     -0.317644     -0.602321
  H      -3.422125     -0.665920     -1.633389
  C      -3.134367     -1.170286      0.361863
  H      -3.165244     -0.822550      1.391707
  C      -2.755899     -2.619555      0.148261
  H      -1.962270     -2.690121     -0.601917
  H      -2.327914     -3.014306      1.073125
  C      -3.932349     -3.506606     -0.276811
  H      -4.755108     -3.379641      0.432264
  H      -4.313344     -3.152946     -1.238478
  C      -3.565154     -4.982689     -0.385131
  H      -4.420867     -5.580004     -0.706001
  H      -2.761654     -5.139303     -1.109146
  H      -3.225828     -5.379153      0.574965
18
Coordinates from ORCA-job 3 Relaxed Surface Scan Step 20
  C      -3.850708      1.102133     -0.409497
  H      -3.248212      1.705623     -1.093567
  H      -4.898756      1.312982     -0.637974
  H      -3.650638      1.441208      0.607521
  C      -3.547281     -0.359344     -0.572568
  H      -3.724397     -0.767808     -1.564742
  C      -3.090073     -1.156108      0.381132
  H      -2.913503     -0.726109      1.363634
  C      -2.769491     -2.629111      0.229387
  H      -1.883714     -2.747730     -0.403572
  H      -2.486244     -3.025923      1.207291
  C      -3.907258     -3.484697     -0.335896
  H      -4.793606     -3.359319      0.291906
  H      -4.184976     -3.116981     -1.326591
  C      -3.549281     -4.964277     -0.430399
  H      -4.378537     -5.545375     -0.838542
  H      -2.683274     -5.122909     -1.077796
  H      -3.307103     -5.377881      0.551650
18
Coordinates from ORCA-job 3 Relaxed Surface Scan Step 21
  C      -3.858333      1.098749     -0.397352
  H      -3.382632      1.628365     -1.227071
  H      -4.920367      1.356745     -0.422597
  H      -3.438846      1.481428      0.533733
  C      -3.661179     -0.384976     -0.523519
  H      -4.052610     -0.830490     -1.433341
  C      -3.051644     -1.147678      0.371247
  H      -2.658562     -0.664745      1.262238
  C      -2.798436     -2.636378      0.286779
  H      -1.833709     -2.801197     -0.206444
  H      -2.672590     -3.018327      1.303668
  C      -3.869073     -3.471473     -0.415395
  H      -4.822240     -3.332607      0.102428
  H      -4.016509     -3.112430     -1.436431
  C      -3.524447     -4.957209     -0.456215
  H      -4.309003     -5.529951     -0.954472
  H      -2.591221     -5.134289     -0.996416
  H      -3.405650     -5.365162      0.550537
18
Coordinates from ORCA-job 3 Relaxed Surface Scan Step 22
  C      -3.884164      1.088212     -0.375039
  H      -3.564361      1.559742     -1.308059
  H      -4.924304      1.381812     -0.210618
  H      -3.283599      1.501255      0.436170
  C      -3.752586     -0.406134     -0.455088
  H      -4.324026     -0.882289     -1.245616
  C      -3.002446     -1.144486      0.348490
  H      -2.435772     -0.635452      1.124686
  C      -2.806789     -2.639890      0.317026
  H      -1.792977     -2.843351     -0.047616
  H      -2.818909     -3.003965      1.349543
  C      -3.806739     -3.451594     -0.502032
  H      -4.814969     -3.265894     -0.121049
  H      -3.799453     -3.113421     -1.541106
  C      -3.519578     -4.949747     -0.464279
  H      -4.251838     -5.505826     -1.052768
  H      -2.529872     -5.175232     -0.868758
  H      -3.554668     -5.335366      0.557490
18
Coordinates from ORCA-job 3 Relaxed Surface Scan Step 23
  C      -3.911670      1.076883     -0.354503
  H      -3.758494      1.493320     -1.353608
  H      -4.899348      1.405915     -0.020804
  H      -3.166637      1.513068      0.311843
  C      -3.823235     -0.422523     -0.376947
  H      -4.539418     -0.923599     -1.020474
  C      -2.955573     -1.141753      0.318295
  H      -2.250588     -0.613970      0.956862
  C      -2.814589     -2.642230      0.343906
  H      -1.774158     -2.889798      0.105043
  H      -2.956659     -2.979900      1.376975
  C      -3.739847     -3.435226     -0.574497
  H      -4.780925     -3.206835     -0.331494
  H      -3.588542     -3.114172     -1.608624
  C      -3.519482     -4.941765     -0.476488
  H      -4.192178     -5.482297     -1.145082
  H      -2.496053     -5.212209     -0.747351
  H      -3.699654     -5.304532      0.538325
18
Coordinates from ORCA-job 3 Relaxed Surface Scan Step 24
  C      -3.928477      1.078351     -0.331844
  H      -3.941816      1.444606     -1.361780
  H      -4.834122      1.454616      0.151263
  H      -3.067751      1.518519      0.172897
  C      -3.883306     -0.422559     -0.294348
  H      -4.715068     -0.927833     -0.775393
  C      -2.927946     -1.139288      0.277615
  H      -2.111793     -0.606188      0.760013
  C      -2.838715     -2.643638      0.363455
  H      -1.788827     -2.930234      0.247896
  H      -3.103832     -2.949147      1.382711
  C      -3.679257     -3.434583     -0.637032
  H      -4.735676     -3.181356     -0.522570
  H      -3.403839     -3.133377     -1.651495
  C      -3.509538     -4.943446     -0.488645
  H      -4.114893     -5.481622     -1.220543
  H      -2.468977     -5.242657     -0.635802
  H      -3.813218     -5.281789      0.504981
