21
Coordinates from ORCA-job 4 Relaxed Surface Scan Step 1
  C      -2.664728      3.153427     -0.273175
  H      -2.118043      3.725118     -1.027711
  H      -3.731463      3.267559     -0.469054
  H      -2.446180      3.612497      0.694539
  C      -2.251107      1.710341     -0.288739
  H      -1.196805      1.517951     -0.102433
  C      -3.056079      0.681155     -0.503980
  H      -4.109200      0.879395     -0.686427
  C      -2.627901     -0.762692     -0.518449
  H      -1.573046     -0.821328     -0.242406
  H      -3.177914     -1.309415      0.255580
  C      -2.832726     -1.472683     -1.864360
  H      -2.313226     -2.435279     -1.829210
  H      -2.343155     -0.891227     -2.651781
  C      -4.292803     -1.720363     -2.243115
  H      -4.834185     -0.771824     -2.289269
  H      -4.773104     -2.304696     -1.451620
  C      -4.451148     -2.448279     -3.574407
  H      -3.954335     -3.421377     -3.555722
  H      -5.503537     -2.618246     -3.810227
  H      -4.016687     -1.871774     -4.394620
21
Coordinates from ORCA-job 4 Relaxed Surface Scan Step 2
  C      -2.755043      3.110841     -0.288874
  H      -2.371578      3.694305     -1.130014
  H      -3.843887      3.169632     -0.304215
  H      -2.401426      3.597622      0.623817
  C      -2.278035      1.689092     -0.359225
  H      -1.199215      1.549677     -0.348657
  C      -3.055313      0.619116     -0.427619
  H      -4.133288      0.760900     -0.428438
  C      -2.566426     -0.803807     -0.494885
  H      -1.496391     -0.823525     -0.276644
  H      -3.055406     -1.382047      0.296569
  C      -2.801232     -1.509648     -1.837566
  H      -2.410127     -2.528697     -1.753940
  H      -2.205273     -1.012631     -2.609421
  C      -4.257398     -1.576777     -2.296227
  H      -4.631503     -0.566410     -2.480873
  H      -4.874009     -1.991083     -1.491501
  C      -4.446660     -2.412267     -3.558642
  H      -4.128294     -3.445812     -3.402554
  H      -5.493648     -2.430988     -3.867665
  H      -3.863219     -2.009232     -4.390011
21
Coordinates from ORCA-job 4 Relaxed Surface Scan Step 3
  C      -2.856438      3.065883     -0.305462
  H      -2.638490      3.649803     -1.203526
  H      -3.936389      3.067991     -0.153918
  H      -2.394249      3.590126      0.535108
  C      -2.319710      1.669285     -0.428930
  H      -1.245890      1.585197     -0.581965
  C      -3.039022      0.559607     -0.362252
  H      -4.110552      0.640912     -0.192991
  C      -2.493882     -0.840090     -0.476157
  H      -1.412196     -0.815876     -0.327241
  H      -2.909294     -1.435185      0.343349
  C      -2.774794     -1.564326     -1.803721
  H      -2.540460     -2.623247     -1.655787
  H      -2.079235     -1.196046     -2.564058
  C      -4.196898     -1.440771     -2.348912
  H      -4.373908     -0.405923     -2.654465
  H      -4.920655     -1.661667     -1.557299
  C      -4.456451     -2.358503     -3.539786
  H      -4.339595     -3.409596     -3.265038
  H      -5.468853     -2.227577     -3.927034
  H      -3.760411     -2.151738     -4.356498
21
Coordinates from ORCA-job 4 Relaxed Surface Scan Step 4
  C      -2.959582      3.024936     -0.311047
  H      -2.906036      3.600089     -1.239112
  H      -4.004829      2.973674     -0.004387
  H      -2.410421      3.590542      0.446234
  C      -2.370618      1.655977     -0.492302
  H      -1.326667      1.624885     -0.797020
  C      -3.011422      0.512064     -0.308479
  H      -4.049253      0.540009      0.017544
  C      -2.411517     -0.861331     -0.470156
  H      -1.324489     -0.778945     -0.419057
  H      -2.717852     -1.457667      0.393822
  C      -2.770183     -1.636109     -1.759228
  H      -2.728799     -2.703081     -1.522587
  H      -1.993040     -1.458839     -2.508197
  C      -4.120697     -1.325772     -2.404406
  H      -4.093828     -0.311130     -2.810815
  H      -4.915030     -1.343262     -1.651876
  C      -4.470716     -2.297906     -3.527217
  H      -4.559260     -3.321410     -3.154980
  H      -5.419619     -2.032929     -3.997788
  H      -3.703514     -2.295534     -4.305530
21
Coordinates from ORCA-job 4 Relaxed Surface Scan Step 5
  C      -3.085350      2.990800     -0.266418
  H      -3.086525      3.602733     -1.172295
  H      -4.119835      2.851075      0.049315
  H      -2.569804      3.567130      0.506337
  C      -2.398917      1.676981     -0.505407
  H      -1.360698      1.735460     -0.824720
  C      -2.951070      0.482935     -0.355940
  H      -3.989152      0.431536     -0.037980
  C      -2.244535     -0.831216     -0.567489
  H      -1.202734     -0.623191     -0.817099
  H      -2.218275     -1.356312      0.391484
  C      -2.849910     -1.784809     -1.636965
  H      -3.152379     -2.719136     -1.156509
  H      -2.058348     -2.062860     -2.337723
  C      -4.036378     -1.254526     -2.444356
  H      -3.777125     -0.294246     -2.896256
  H      -4.879300     -1.053896     -1.777871
  C      -4.484554     -2.225756     -3.532109
  H      -4.782671     -3.187969     -3.108218
  H      -5.337609     -1.830424     -4.087175
  H      -3.682203     -2.416048     -4.249189
21
Coordinates from ORCA-job 4 Relaxed Surface Scan Step 6
  C      -3.145586      2.974012     -0.133363
  H      -3.227781      3.642460     -0.994428
  H      -4.152242      2.762124      0.228787
  H      -2.613637      3.524337      0.647217
  C      -2.413678      1.714536     -0.497289
  H      -1.401608      1.845999     -0.873958
  C      -2.897802      0.486898     -0.392876
  H      -3.919098      0.364549     -0.039027
  C      -2.150953     -0.775340     -0.744924
  H      -1.264464     -0.518256     -1.331290
  H      -1.774216     -1.238717      0.172657
  C      -2.985555     -1.821219     -1.505700
  H      -3.537184     -2.441966     -0.791423
  H      -2.294017     -2.504439     -2.007029
  C      -3.963459     -1.239350     -2.532028
  H      -3.501583     -0.391328     -3.045956
  H      -4.825571     -0.816704     -2.010207
  C      -4.454145     -2.266473     -3.546826
  H      -4.936921     -3.112632     -3.051169
  H      -5.179913     -1.828501     -4.234960
  H      -3.627959     -2.661730     -4.142792
21
Coordinates from ORCA-job 4 Relaxed Surface Scan Step 7
  C      -3.192736      2.949970     -0.081671
  H      -3.419807      3.596971     -0.933036
  H      -4.131112      2.702689      0.416067
  H      -2.585814      3.537838      0.612040
  C      -2.460592      1.715772     -0.523445
  H      -1.514626      1.882144     -1.034021
  C      -2.871014      0.470877     -0.338637
  H      -3.826088      0.308903      0.157488
  C      -2.127429     -0.766572     -0.770190
  H      -1.280766     -0.482164     -1.400953
  H      -1.695828     -1.250876      0.112056
  C      -2.995139     -1.796552     -1.506611
  H      -3.637709     -2.314535     -0.785970
  H      -2.334776     -2.566707     -1.916467
  C      -3.857300     -1.213967     -2.628076
  H      -3.258381     -0.526385     -3.233122
  H      -4.649027     -0.598295     -2.194303
  C      -4.484824     -2.279544     -3.521017
  H      -5.104785     -2.967419     -2.940355
  H      -5.119015     -1.830432     -4.288015
  H      -3.720603     -2.873454     -4.028346
21
Coordinates from ORCA-job 4 Relaxed Surface Scan Step 8
  C      -3.231375      2.932711     -0.026300
  H      -3.584116      3.557406     -0.851111
  H      -4.093005      2.657013      0.582790
  H      -2.569999      3.554023      0.583371
  C      -2.508272      1.721156     -0.539756
  H      -1.637107      1.915938     -1.161210
  C      -2.843611      0.464216     -0.294529
  H      -3.720425      0.270311      0.320864
  C      -2.110630     -0.751928     -0.795515
  H      -1.298333     -0.443557     -1.459042
  H      -1.636198     -1.253113      0.054750
  C      -3.004301     -1.771463     -1.512495
  H      -3.720996     -2.190156     -0.797252
  H      -2.378776     -2.610775     -1.831635
  C      -3.759077     -1.216495     -2.719892
  H      -3.054918     -0.706869     -3.385295
  H      -4.460504     -0.446634     -2.389276
  C      -4.516035     -2.286966     -3.499766
  H      -5.244865     -2.797814     -2.865437
  H      -5.058184     -1.853648     -4.342673
  H      -3.836645     -3.045095     -3.897174
21
Coordinates from ORCA-job 4 Relaxed Surface Scan Step 9
  C      -3.270799      2.913903      0.023435
  H      -3.742012      3.508807     -0.763327
  H      -4.044323      2.614693      0.731581
  H      -2.570452      3.572307      0.544086
  C      -2.561163      1.723550     -0.554234
  H      -1.775672      1.942194     -1.274110
  C      -2.813219      0.458582     -0.255686
  H      -3.599884      0.239488      0.464355
  C      -2.094064     -0.737695     -0.818870
  H      -1.315895     -0.406660     -1.511648
  H      -1.579372     -1.250912     -0.000080
  C      -3.011915     -1.749887     -1.516244
  H      -3.792092     -2.069494     -0.816583
  H      -2.428392     -2.647019     -1.744759
  C      -3.661490     -1.237490     -2.800209
  H      -2.877611     -0.916889     -3.494121
  H      -4.252171     -0.344732     -2.580625
  C      -4.546341     -2.276084     -3.482288
  H      -5.361399     -2.593600     -2.827154
  H      -4.992868     -1.877082     -4.395270
  H      -3.976237     -3.167720     -3.754833
21
Coordinates from ORCA-job 4 Relaxed Surface Scan Step 10
  C      -3.308278      2.894214      0.069988
  H      -3.890251      3.453106     -0.667478
  H      -3.983909      2.576516      0.864901
  H      -2.583810      3.591622      0.498706
  C      -2.615807      1.723674     -0.566027
  H      -1.925115      1.960741     -1.372130
  C      -2.777392      0.455215     -0.222611
  H      -3.464476      0.215558      0.587386
  C      -2.077514     -0.723022     -0.844520
  H      -1.341184     -0.371089     -1.571757
  H      -1.516704     -1.241658     -0.060812
  C      -3.026156     -1.729474     -1.512449
  H      -3.862083     -1.939021     -0.836371
  H      -2.498725     -2.678860     -1.645133
  C      -3.570348     -1.274707     -2.865054
  H      -2.730674     -1.140457     -3.555052
  H      -4.040496     -0.293495     -2.759945
  C      -4.568773     -2.254172     -3.473733
  H      -5.441769     -2.381820     -2.828945
  H      -4.923817     -1.904714     -4.445307
  H      -4.120093     -3.239897     -3.620241
21
Coordinates from ORCA-job 4 Relaxed Surface Scan Step 11
  C      -3.330097      2.883280      0.129693
  H      -4.003698      3.412619     -0.549250
  H      -3.910214      2.549557      0.990720
  H      -2.592815      3.611167      0.478413
  C      -2.661766      1.731963     -0.564540
  H      -2.063463      1.985120     -1.436908
  C      -2.741721      0.462067     -0.198427
  H      -3.332501      0.203775      0.679256
  C      -2.070297     -0.698740     -0.881034
  H      -1.386804     -0.326037     -1.648332
  H      -1.455223     -1.219583     -0.141478
  C      -3.056443     -1.701396     -1.506242
  H      -3.938804     -1.788591     -0.863700
  H      -2.597656     -2.694056     -1.531006
  C      -3.497177     -1.330590     -2.920733
  H      -2.621010     -1.363196     -3.577150
  H      -3.855860     -0.297530     -2.933336
  C      -4.577344     -2.250897     -3.479595
  H      -5.485185     -2.209995     -2.872809
  H      -4.848104     -1.970051     -4.499372
  H      -4.241189     -3.290626     -3.500753
21
Coordinates from ORCA-job 4 Relaxed Surface Scan Step 12
  C      -3.317415      2.893380      0.221062
  H      -4.051538      3.417975     -0.396045
  H      -3.822043      2.539749      1.120832
  H      -2.567522      3.630546      0.519803
  C      -2.686547      1.762068     -0.538065
  H      -2.161683      2.036009     -1.450521
  C      -2.718145      0.486607     -0.184285
  H      -3.234806      0.206653      0.732733
  C      -2.087765     -0.654285     -0.935512
  H      -1.467820     -0.256874     -1.743229
  H      -1.412161     -1.178973     -0.254355
  C      -3.112826     -1.655299     -1.508470
  H      -4.032410     -1.613027     -0.916143
  H      -2.730813     -2.674924     -1.407152
  C      -3.452209     -1.405368     -2.976508
  H      -2.547099     -1.563509     -3.572772
  H      -3.734015     -0.356798     -3.111470
  C      -4.565632     -2.303676     -3.504205
  H      -5.498670     -2.139011     -2.959889
  H      -4.760879     -2.112869     -4.561357
  H      -4.305374     -3.360113     -3.401036
21
Coordinates from ORCA-job 4 Relaxed Surface Scan Step 13
  C      -3.267343      2.922130      0.346435
  H      -4.024540      3.477392     -0.213343
  H      -3.731948      2.537886      1.255181
  H      -2.495949      3.640096      0.637110
  C      -2.686163      1.816047     -0.486021
  H      -2.202643      2.121395     -1.411267
  C      -2.715937      0.527883     -0.181920
  H      -3.194902      0.217624      0.745494
  C      -2.135986     -0.585866     -1.010677
  H      -1.586914     -0.156854     -1.852376
  H      -1.398516     -1.117868     -0.403433
  C      -3.195043     -1.586663     -1.529593
  H      -4.143909     -1.416822     -1.011943
  H      -2.895388     -2.609171     -1.284244
  C      -3.430625     -1.493873     -3.036147
  H      -2.494796     -1.731345     -3.552937
  H      -3.674469     -0.460102     -3.299973
  C      -4.533183     -2.420255     -3.537044
  H      -5.492451     -2.182238     -3.071088
  H      -4.660187     -2.336060     -4.618187
  H      -4.306480     -3.465077     -3.310612
21
Coordinates from ORCA-job 4 Relaxed Surface Scan Step 14
  C      -3.193748      2.952117      0.491499
  H      -3.944828      3.563914     -0.015084
  H      -3.649547      2.529114      1.387416
  H      -2.392297      3.626376      0.804716
  C      -2.669206      1.880034     -0.419417
  H      -2.198915      2.225195     -1.337460
  C      -2.734042      0.577613     -0.190902
  H      -3.206342      0.232186      0.726857
  C      -2.209509     -0.498058     -1.103651
  H      -1.734408     -0.028466     -1.967544
  H      -1.415157     -1.041746     -0.584198
  C      -3.293016     -1.497623     -1.574942
  H      -4.263665     -1.211088     -1.161130
  H      -3.081658     -2.493402     -1.175439
  C      -3.417492     -1.588420     -3.095477
  H      -2.450074     -1.873490     -3.520892
  H      -3.641911     -0.593983     -3.493864
  C      -4.484790     -2.573534     -3.559311
  H      -5.471661     -2.294730     -3.181980
  H      -4.544603     -2.608285     -4.648940
  H      -4.270501     -3.585466     -3.206841
21
Coordinates from ORCA-job 4 Relaxed Surface Scan Step 15
  C      -3.114683      2.965358      0.638168
  H      -3.847937      3.639919      0.188336
  H      -3.573006      2.500720      1.511907
  H      -2.281246      3.584062      0.981206
  C      -2.649285      1.938034     -0.352961
  H      -2.181891      2.326811     -1.254932
  C      -2.762206      0.626559     -0.210892
  H      -3.237739      0.243954      0.689698
  C      -2.295417     -0.399493     -1.209308
  H      -1.893117      0.117664     -2.082029
  H      -1.455501     -0.958136     -0.784599
  C      -3.395190     -1.392764     -1.643432
  H      -4.376523     -1.003689     -1.361502
  H      -3.282436     -2.331789     -1.093473
  C      -3.400280     -1.681041     -3.144945
  H      -2.404872     -2.002093     -3.466121
  H      -3.598025     -0.747272     -3.680674
  C      -4.428879     -2.728225     -3.557771
  H      -5.440191     -2.419907     -3.281606
  H      -4.415804     -2.891907     -4.637156
  H      -4.233145     -3.688503     -3.074496
21
Coordinates from ORCA-job 4 Relaxed Surface Scan Step 16
  C      -3.058533      2.950478      0.762038
  H      -3.798702      3.660081      0.383039
  H      -3.488598      2.440679      1.624892
  H      -2.202599      3.536801      1.106569
  C      -2.649038      1.978087     -0.306155
  H      -2.213326      2.414207     -1.202333
  C      -2.774895      0.661895     -0.236518
  H      -3.220684      0.235026      0.659147
  C      -2.363984     -0.306218     -1.314446
  H      -2.026024      0.259000     -2.184417
  H      -1.494224     -0.880449     -0.977918
  C      -3.477282     -1.285783     -1.723439
  H      -4.452094     -0.811297     -1.588723
  H      -3.471977     -2.145749     -1.046105
  C      -3.365920     -1.768037     -3.170072
  H      -2.358715     -2.147689     -3.365206
  H      -3.490192     -0.908024     -3.835590
  C      -4.390318     -2.837979     -3.532658
  H      -5.410312     -2.476887     -3.379998
  H      -4.297797     -3.136354     -4.578799
  H      -4.262159     -3.733526     -2.919891
21
Coordinates from ORCA-job 4 Relaxed Surface Scan Step 17
  C      -3.039486      2.911803      0.853936
  H      -3.837657      3.602491      0.569534
  H      -3.373047      2.349331      1.726699
  H      -2.181767      3.521209      1.150634
  C      -2.683797      2.001793     -0.286042
  H      -2.344332      2.491546     -1.196005
  C      -2.749276      0.679554     -0.263345
  H      -3.095602      0.195453      0.647277
  C      -2.393789     -0.226518     -1.411511
  H      -2.112855      0.382867     -2.272730
  H      -1.504878     -0.812272     -1.152408
  C      -3.521587     -1.189906     -1.799975
  H      -4.471952     -0.649797     -1.812019
  H      -3.623209     -1.957124     -1.025054
  C      -3.313840     -1.856148     -3.159329
  H      -2.330611     -2.334740     -3.195411
  H      -3.295062     -1.081745     -3.932594
  C      -4.388966     -2.882688     -3.500974
  H      -5.382504     -2.427861     -3.506695
  H      -4.219623     -3.320693     -4.486606
  H      -4.403532     -3.698295     -2.773965
21
Coordinates from ORCA-job 4 Relaxed Surface Scan Step 18
  C      -3.027958      2.857410      0.937506
  H      -3.899616      3.495558      0.770269
  H      -3.223616      2.239568      1.814607
  H      -2.188747      3.518758      1.168601
  C      -2.734527      2.019584     -0.273264
  H      -2.530514      2.566757     -1.190945
  C      -2.704246      0.696403     -0.303756
  H      -2.909935      0.149217      0.614285
  C      -2.411884     -0.142778     -1.517426
  H      -2.191463      0.508339     -2.367017
  H      -1.505467     -0.731115     -1.336320
  C      -3.553985     -1.095687     -1.880624
  H      -4.465566     -0.513106     -2.045228
  H      -3.763389     -1.750583     -1.027939
  C      -3.264938     -1.948463     -3.114007
  H      -2.346165     -2.520838     -2.952082
  H      -3.064083     -1.291392     -3.966074
  C      -4.399181     -2.903968     -3.470371
  H      -5.325145     -2.360792     -3.673909
  H      -4.157856     -3.491626     -4.358265
  H      -4.599090     -3.602985     -2.654624
21
Coordinates from ORCA-job 4 Relaxed Surface Scan Step 19
  C      -3.002590      2.788797      1.021999
  H      -3.929646      3.366538      0.979962
  H      -3.060679      2.116827      1.878962
  H      -2.192038      3.499789      1.202341
  C      -2.780851      2.033650     -0.256496
  H      -2.712397      2.636546     -1.159277
  C      -2.663151      0.719530     -0.362977
  H      -2.728483      0.108738      0.536394
  C      -2.441696     -0.044282     -1.638864
  H      -2.283058      0.652305     -2.467085
  H      -1.518973     -0.626330     -1.540220
  C      -3.594539     -0.996573     -1.976846
  H      -4.456634     -0.408366     -2.308990
  H      -3.914512     -1.517508     -1.068386
  C      -3.231418     -2.032929     -3.037121
  H      -2.411600     -2.650210     -2.654295
  H      -2.842703     -1.525964     -3.926111
  C      -4.398006     -2.930924     -3.435345
  H      -5.220454     -2.348073     -3.856923
  H      -4.095128     -3.665855     -4.183792
  H      -4.788814     -3.477447     -2.573514
21
Coordinates from ORCA-job 4 Relaxed Surface Scan Step 20
  C      -2.960624      2.702930      1.105716
  H      -3.912396      3.236676      1.170815
  H      -2.923094      1.976979      1.918677
  H      -2.170246      3.439670      1.271661
  C      -2.805932      2.040338     -0.232559
  H      -2.832186      2.700996     -1.096304
  C      -2.641976      0.742588     -0.434046
  H      -2.610423      0.071876      0.423980
  C      -2.487063      0.066907     -1.767995
  H      -2.383936      0.818972     -2.555071
  H      -1.550101     -0.499434     -1.755928
  C      -3.645589     -0.889838     -2.103191
  H      -4.433645     -0.333482     -2.621395
  H      -4.097323     -1.258481     -1.177121
  C      -3.216996     -2.089741     -2.944154
  H      -2.505329     -2.680537     -2.356693
  H      -2.672813     -1.743464     -3.828750
  C      -4.377798     -2.978432     -3.377186
  H      -5.086593     -2.428232     -4.000712
  H      -4.026670     -3.836870     -3.953181
  H      -4.926642     -3.361160     -2.513147
21
Coordinates from ORCA-job 4 Relaxed Surface Scan Step 21
  C      -2.914218      2.593127      1.183572
  H      -3.858840      3.126829      1.317278
  H      -2.860359      1.806099      1.936593
  H      -2.112747      3.309226      1.383271
  C      -2.803405      2.035535     -0.205993
  H      -2.848373      2.761767     -1.014530
  C      -2.657043      0.756154     -0.511868
  H      -2.609974      0.024104      0.293173
  C      -2.544171      0.189148     -1.900588
  H      -2.496979      1.007153     -2.622745
  H      -1.588610     -0.339255     -1.976527
  C      -3.690037     -0.781812     -2.268391
  H      -4.363779     -0.295063     -2.979687
  H      -4.296199     -0.990138     -1.382185
  C      -3.209486     -2.108560     -2.853444
  H      -2.582519     -2.611377     -2.109256
  H      -2.563439     -1.914345     -3.715565
  C      -4.345104     -3.037082     -3.269139
  H      -4.967880     -2.579884     -4.041871
  H      -3.961446     -3.978627     -3.667023
  H      -4.992761     -3.274738     -2.421660
21
Coordinates from ORCA-job 4 Relaxed Surface Scan Step 22
  C      -2.875648      2.449278      1.245107
  H      -3.793079      3.015895      1.424798
  H      -2.864526      1.597659      1.926287
  H      -2.040396      3.104032      1.507253
  C      -2.785880      2.010740     -0.188038
  H      -2.793424      2.806461     -0.929586
  C      -2.698824      0.757175     -0.604335
  H      -2.697660     -0.038498      0.138356
  C      -2.608845      0.317208     -2.041323
  H      -2.631380      1.197888     -2.684887
  H      -1.630831     -0.146495     -2.205755
  C      -3.716502     -0.680414     -2.455059
  H      -4.240849     -0.300146     -3.335531
  H      -4.472957     -0.735324     -1.667234
  C      -3.201543     -2.087950     -2.755903
  H      -2.642260     -2.463431     -1.893025
  H      -2.481112     -2.036241     -3.578365
  C      -4.307067     -3.075480     -3.112707
  H      -4.862856     -2.745851     -3.993941
  H      -3.899707     -4.065021     -3.329256
  H      -5.022026     -3.183226     -2.293441
21
Coordinates from ORCA-job 4 Relaxed Surface Scan Step 23
  C      -2.852302      2.280071      1.279869
  H      -3.754638      2.850406      1.515495
  H      -2.856160      1.373807      1.886551
  H      -1.999843      2.890909      1.588556
  C      -2.783620      1.962814     -0.186061
  H      -2.779594      2.819071     -0.856888
  C      -2.727080      0.747338     -0.707604
  H      -2.743038     -0.105096     -0.031699
  C      -2.662463      0.434119     -2.179741
  H      -2.770943      1.360886     -2.744735
  H      -1.665647      0.052072     -2.425285
  C      -3.715437     -0.596908     -2.631141
  H      -4.071001     -0.343446     -3.633113
  H      -4.593521     -0.524348     -1.982685
  C      -3.198756     -2.036519     -2.642596
  H      -2.724982     -2.271017     -1.684404
  H      -2.403397     -2.117679     -3.390098
  C      -4.280124     -3.069028     -2.941638
  H      -4.750858     -2.879467     -3.909455
  H      -3.867406     -4.079483     -2.966536
  H      -5.066560     -3.050241     -2.183374
21
Coordinates from ORCA-job 4 Relaxed Surface Scan Step 24
  C      -2.828984      2.176132      1.284602
  H      -3.769862      2.633609      1.601611
  H      -2.693103      1.253719      1.850355
  H      -2.029005      2.866607      1.564576
  C      -2.826174      1.921677     -0.195074
  H      -2.960911      2.796663     -0.827087
  C      -2.672388      0.739612     -0.771592
  H      -2.543584     -0.131584     -0.133637
  C      -2.675472      0.494188     -2.257629
  H      -2.868772      1.438023     -2.770508
  H      -1.676666      0.176323     -2.576993
  C      -3.697864     -0.561925     -2.707300
  H      -3.930427     -0.407706     -3.764883
  H      -4.637149     -0.403010     -2.168735
  C      -3.228660     -2.004733     -2.517614
  H      -2.910900     -2.164917     -1.483341
  H      -2.336479     -2.167733     -3.130411
  C      -4.288451     -3.038435     -2.884037
  H      -4.605025     -2.928626     -3.924195
  H      -3.910833     -4.055108     -2.758448
  H      -5.176662     -2.934514     -2.256244
