18
Coordinates from ORCA-job 6 Relaxed Surface Scan Step 1
  C      -3.881568      1.469610     -0.011210
  H      -3.635443      2.015399      0.899666
  H      -3.490136      2.017661     -0.869852
  H      -4.970923      1.447392     -0.093794
  C      -3.327519      0.050353      0.011201
  H      -3.718542     -0.473236      0.889045
  C      -1.795971      0.002942      0.065962
  H      -1.410982      0.519966     -0.813282
  C      -1.259596     -1.435782      0.066015
  H      -1.598905     -1.954197     -0.826987
  H      -0.169025     -1.436753      0.077049
  H      -1.612781     -1.985506      0.940597
  C      -1.212025      0.733069      1.254774
  O      -0.231765      1.394245      1.223747
  O      -3.694106     -0.635161     -1.155134
  H      -4.632832     -0.721203     -1.197232
  O      -1.879943      0.524611      2.384655
  H      -1.443218      0.994908      3.085204
18
Coordinates from ORCA-job 6 Relaxed Surface Scan Step 2
  C      -3.867959      1.481826     -0.027140
  H      -3.620845      2.027068      0.884603
  H      -3.465811      2.027112     -0.882249
  H      -4.957091      1.470117     -0.113986
  C      -3.327723      0.057459      0.000793
  H      -3.726724     -0.456254      0.881228
  C      -1.795595     -0.002808      0.063363
  H      -1.403013      0.497007     -0.821564
  C      -1.272771     -1.444667      0.093574
  H      -1.598804     -1.971044     -0.799944
  H      -0.182014     -1.457162      0.123741
  H      -1.645688     -1.979915      0.967903
  C      -1.240459      0.762797      1.243046
  O      -0.408687      1.601580      1.181413
  O      -3.696271     -0.631629     -1.161642
  H      -4.635485     -0.711795     -1.205706
  O      -1.764570      0.379774      2.402863
  H      -1.355770      0.878852      3.100129
18
Coordinates from ORCA-job 6 Relaxed Surface Scan Step 3
  C      -3.860283      1.495167     -0.060837
  H      -3.619091      2.058164      0.841535
  H      -3.444949      2.022631     -0.920485
  H      -4.948493      1.486738     -0.159422
  C      -3.330386      0.067884     -0.001030
  H      -3.739480     -0.423928      0.888035
  C      -1.797172     -0.005658      0.073835
  H      -1.396701      0.491805     -0.808664
  C      -1.286782     -1.450048      0.109230
  H      -1.590996     -1.967364     -0.797128
  H      -0.197107     -1.472584      0.169349
  H      -1.685691     -1.989144      0.968731
  C      -1.269943      0.779826      1.253937
  O      -0.618819      1.765116      1.182730
  O      -3.698496     -0.642357     -1.149975
  H      -4.638320     -0.711713     -1.199772
  O      -1.611988      0.249666      2.423106
  H      -1.230583      0.774118      3.117249
18
Coordinates from ORCA-job 6 Relaxed Surface Scan Step 4
  C      -3.860580      1.508152     -0.110607
  H      -3.625368      2.103658      0.771069
  H      -3.435421      2.003702     -0.984140
  H      -4.947831      1.496178     -0.220677
  C      -3.336803      0.081913      0.001998
  H      -3.758961     -0.378983      0.902585
  C      -1.802514     -0.003516      0.096046
  H      -1.391621      0.502823     -0.776995
  C      -1.302600     -1.450227      0.118394
  H      -1.580619     -1.947091     -0.807305
  H      -0.215749     -1.481673      0.213959
  H      -1.729960     -2.004977      0.953423
  C      -1.299158      0.784994      1.286467
  O      -0.847585      1.877871      1.234011
  O      -3.699447     -0.663244     -1.125960
  H      -4.639593     -0.715111     -1.189809
  O      -1.423950      0.135580      2.437210
  H      -1.067516      0.678268      3.130755
18
Coordinates from ORCA-job 6 Relaxed Surface Scan Step 5
  C      -3.865923      1.518315     -0.171114
  H      -3.631358      2.155134      0.679490
  H      -3.436460      1.968793     -1.066733
  H      -4.952784      1.499704     -0.287129
  C      -3.346735      0.097598      0.007989
  H      -3.783858     -0.326392      0.920748
  C      -1.811858      0.002655      0.127459
  H      -1.387337      0.525306     -0.730427
  C      -1.319312     -1.445652      0.124600
  H      -1.570202     -1.915239     -0.822368
  H      -0.237108     -1.485817      0.256657
  H      -1.774998     -2.022568      0.929103
  C      -1.330193      0.779744      1.337198
  O      -1.089082      1.939260      1.338113
  O      -3.700656     -0.690711     -1.093090
  H      -4.639743     -0.711817     -1.184718
  O      -1.209684      0.043862      2.433160
  H      -0.877988      0.596144      3.131488
18
Coordinates from ORCA-job 6 Relaxed Surface Scan Step 6
  C      -3.871216      1.526837     -0.230219
  H      -3.647545      2.194178      0.597740
  H      -3.426529      1.939297     -1.136986
  H      -4.956035      1.502510     -0.365454
  C      -3.358971      0.113048      0.010417
  H      -3.816726     -0.278167      0.928541
  C      -1.825435      0.007708      0.163695
  H      -1.381616      0.546706     -0.675856
  C      -1.338076     -1.441677      0.134033
  H      -1.580163     -1.889340     -0.825237
  H      -0.258874     -1.488335      0.280050
  H      -1.805608     -2.035414      0.919656
  C      -1.363912      0.765607      1.396863
  O      -1.341281      1.946900      1.486286
  O      -3.699823     -0.711111     -1.068896
  H      -4.635510     -0.705974     -1.192205
  O      -0.978105     -0.009938      2.398550
  H      -0.679854      0.545484      3.109446
18
Coordinates from ORCA-job 6 Relaxed Surface Scan Step 7
  C      -3.866769      1.534077     -0.300798
  H      -3.640382      2.239586      0.492571
  H      -3.409088      1.887766     -1.226432
  H      -4.950515      1.515078     -0.446968
  C      -3.372797      0.129344      0.019048
  H      -3.848426     -0.213055      0.947774
  C      -1.841862      0.015366      0.203273
  H      -1.376244      0.579580     -0.609711
  C      -1.350705     -1.431723      0.133712
  H      -1.591584     -1.853728     -0.836930
  H      -0.272848     -1.478775      0.280975
  H      -1.819099     -2.048852      0.901218
  C      -1.406245      0.735826      1.470776
  O      -1.607896      1.882178      1.696300
  O      -3.711872     -0.742006     -1.023833
  H      -4.642077     -0.705339     -1.178928
  O      -0.753968     -0.027063      2.333012
  H      -0.502903      0.510057      3.075366
18
Coordinates from ORCA-job 6 Relaxed Surface Scan Step 8
  C      -3.855555      1.542641     -0.345361
  H      -3.635990      2.260451      0.438198
  H      -3.377568      1.867883     -1.271701
  H      -4.936528      1.533685     -0.512019
  C      -3.383532      0.140195      0.015703
  H      -3.878528     -0.178854      0.942097
  C      -1.859012      0.015431      0.234810
  H      -1.365716      0.592606     -0.554696
  C      -1.369452     -1.432311      0.145825
  H      -1.612330     -1.841712     -0.829354
  H      -0.292988     -1.484028      0.293433
  H      -1.842385     -2.058075      0.904606
  C      -1.448740      0.702158      1.529958
  O      -1.862778      1.747571      1.907050
  O      -3.714439     -0.748502     -1.016321
  H      -4.640574     -0.700085     -1.191019
  O      -0.544998      0.034570      2.228586
  H      -0.344168      0.534696      3.010629
18
Coordinates from ORCA-job 6 Relaxed Surface Scan Step 9
  C      -3.843383      1.553495     -0.349352
  H      -3.640112      2.253951      0.454172
  H      -3.341722      1.890713     -1.258980
  H      -4.920039      1.558208     -0.541676
  C      -3.389626      0.140929     -0.003576
  H      -3.906177     -0.196935      0.903377
  C      -1.875948      0.004958      0.253134
  H      -1.349705      0.572874     -0.523122
  C      -1.398150     -1.450021      0.181021
  H      -1.641406     -1.867806     -0.790357
  H      -0.323732     -1.510982      0.335302
  H      -1.884654     -2.061901      0.943796
  C      -1.484772      0.671236      1.563120
  O      -2.071715      1.556374      2.090637
  O      -3.696964     -0.723383     -1.064581
  H      -4.619376     -0.672242     -1.257036
  O      -0.374142      0.178434      2.088593
  H      -0.203656      0.630417      2.905951
18
Coordinates from ORCA-job 6 Relaxed Surface Scan Step 10
  C      -3.829521      1.565119     -0.322547
  H      -3.653034      2.223543      0.522795
  H      -3.299011      1.946974     -1.197530
  H      -4.899419      1.585292     -0.547515
  C      -3.390606      0.135421     -0.032216
  H      -3.931673     -0.242198      0.843172
  C      -1.889226     -0.014020      0.257768
  H      -1.333749      0.527890     -0.515949
  C      -1.433227     -1.479922      0.229545
  H      -1.666618     -1.918082     -0.735501
  H      -0.362612     -1.554036      0.404604
  H      -1.946231     -2.062831      0.998318
  C      -1.509589      0.642888      1.571964
  O      -2.209640      1.329099      2.238670
  O      -3.664793     -0.677534     -1.142628
  H      -4.584726     -0.634375     -1.348135
  O      -0.262809      0.375431      1.931195
  H      -0.098796      0.779660      2.774416
18
Coordinates from ORCA-job 6 Relaxed Surface Scan Step 11
  C      -3.809436      1.575549     -0.292487
  H      -3.650134      2.191386      0.589090
  H      -3.254205      1.995473     -1.133934
  H      -4.873239      1.618808     -0.540634
  C      -3.389896      0.130074     -0.057148
  H      -3.953826     -0.276471      0.788976
  C      -1.898477     -0.035953      0.256668
  H      -1.320772      0.479333     -0.516487
  C      -1.464040     -1.510231      0.269311
  H      -1.680265     -1.964832     -0.692663
  H      -0.397789     -1.595354      0.470186
  H      -2.004839     -2.067855      1.037676
  C      -1.526551      0.610196      1.574521
  O      -2.278210      1.082742      2.359509
  O      -3.638902     -0.634281     -1.207249
  H      -4.557602     -0.600618     -1.419811
  O      -0.219702      0.580974      1.793436
  H      -0.047394      0.949381      2.651464
18
Coordinates from ORCA-job 6 Relaxed Surface Scan Step 12
  C      -3.780975      1.585278     -0.269126
  H      -3.625770      2.169423      0.636025
  H      -3.207455      2.026274     -1.086980
  H      -4.840524      1.655255     -0.528077
  C      -3.386494      0.126888     -0.073310
  H      -3.967546     -0.291106      0.754170
  C      -1.901887     -0.060385      0.253779
  H      -1.308356      0.436027     -0.517082
  C      -1.489317     -1.540713      0.291514
  H      -1.687579     -2.002220     -0.671610
  H      -0.427670     -1.637811      0.516764
  H      -2.054709     -2.081229      1.053715
  C      -1.536799      0.572788      1.577564
  O      -2.290808      0.834299      2.453454
  O      -3.626625     -0.602733     -1.246865
  H      -4.545439     -0.573643     -1.459594
  O      -0.233041      0.781904      1.690326
  H      -0.054284      1.130022      2.555757
18
Coordinates from ORCA-job 6 Relaxed Surface Scan Step 13
  C      -3.744904      1.594268     -0.250865
  H      -3.584381      2.157269      0.668058
  H      -3.158659      2.043552     -1.054781
  H      -4.801733      1.690786     -0.511615
  C      -3.378235      0.125058     -0.081633
  H      -3.970372     -0.294375      0.736534
  C      -1.898112     -0.087972      0.250715
  H      -1.293838      0.397123     -0.517011
  C      -1.511993     -1.574123      0.299172
  H      -1.701448     -2.035739     -0.666074
  H      -0.454227     -1.687895      0.539839
  H      -2.095763     -2.101166      1.056037
  C      -1.540078      0.534943      1.580781
  O      -2.256391      0.596962      2.522709
  O      -3.623413     -0.580224     -1.267872
  H      -4.543097     -0.547987     -1.476426
  O      -0.293234      0.980286      1.616319
  H      -0.115401      1.317551      2.486538
18
Coordinates from ORCA-job 6 Relaxed Surface Scan Step 14
  C      -3.703166      1.601908     -0.227786
  H      -3.537019      2.144968      0.703063
  H      -3.104660      2.057862     -1.018448
  H      -4.756928      1.723457     -0.489952
  C      -3.363643      0.123053     -0.086443
  H      -3.964098     -0.301218      0.723406
  C      -1.887296     -0.120502      0.247258
  H      -1.275809      0.354195     -0.520169
  C      -1.536438     -1.613463      0.301036
  H      -1.731703     -2.073746     -0.663955
  H      -0.481734     -1.751994      0.545291
  H      -2.132864     -2.122966      1.059121
  C      -1.534878      0.501399      1.579992
  O      -2.176088      0.384649      2.569687
  O      -3.617633     -0.555428     -1.285324
  H      -4.538479     -0.517582     -1.487924
  O      -0.397968      1.179190      1.554720
  H      -0.224875      1.514536      2.426851
18
Coordinates from ORCA-job 6 Relaxed Surface Scan Step 15
  C      -3.658595      1.608122     -0.195410
  H      -3.496956      2.125820      0.750921
  H      -3.042562      2.076778     -0.964488
  H      -4.706953      1.751528     -0.467673
  C      -3.342978      0.120887     -0.090640
  H      -3.954134     -0.316158      0.705320
  C      -1.871113     -0.158434      0.244789
  H      -1.254918      0.303040     -0.526636
  C      -1.564059     -1.658296      0.304136
  H      -1.784649     -2.118781     -0.655432
  H      -0.511040     -1.828504      0.536114
  H      -2.163572     -2.143493      1.074863
  C      -1.519417      0.474214      1.573611
  O      -2.044739      0.207497      2.601642
  O      -3.601392     -0.521939     -1.307294
  H      -4.522567     -0.476598     -1.507118
  O      -0.546860      1.368644      1.492221
  H      -0.378773      1.713992      2.361499
18
Coordinates from ORCA-job 6 Relaxed Surface Scan Step 16
  C      -3.617878      1.616736     -0.174772
  H      -3.465805      2.119249      0.780886
  H      -2.983835      2.091790     -0.924598
  H      -4.660199      1.773830     -0.462229
  C      -3.322225      0.124114     -0.089853
  H      -3.944941     -0.314656      0.697330
  C      -1.855117     -0.192081      0.246735
  H      -1.234246      0.257119     -0.528452
  C      -1.590279     -1.697713      0.305485
  H      -1.832692     -2.153483     -0.651062
  H      -0.540658     -1.897196      0.528507
  H      -2.193294     -2.164840      1.083963
  C      -1.491572      0.446752      1.570151
  O      -1.855719      0.054770      2.626897
  O      -3.587095     -0.497079     -1.315730
  H      -4.506865     -0.434762     -1.517665
  O      -0.724342      1.519376      1.444959
  H      -0.558518      1.876393      2.309872
18
Coordinates from ORCA-job 6 Relaxed Surface Scan Step 17
  C      -3.584487      1.632589     -0.194603
  H      -3.433049      2.155926      0.748467
  H      -2.940494      2.085003     -0.949636
  H      -4.623325      1.789990     -0.494767
  C      -3.307612      0.138771     -0.076884
  H      -3.935216     -0.270724      0.723330
  C      -1.843580     -0.210402      0.256088
  H      -1.217095      0.235043     -0.517957
  C      -1.611001     -1.720500      0.295976
  H      -1.851098     -2.158526     -0.669025
  H      -0.569226     -1.943196      0.531022
  H      -2.230656     -2.187394      1.061134
  C      -1.450859      0.411822      1.580520
  O      -1.608794     -0.094022      2.639077
  O      -3.594450     -0.503088     -1.286948
  H      -4.512117     -0.415498     -1.489198
  O      -0.913305      1.617609      1.453459
  H      -0.738915      1.964915      2.320368
18
Coordinates from ORCA-job 6 Relaxed Surface Scan Step 18
  C      -3.550707      1.653115     -0.269756
  H      -3.375673      2.242242      0.627042
  H      -2.910123      2.034182     -1.066162
  H      -4.590615      1.803866     -0.570589
  C      -3.301667      0.166169     -0.047565
  H      -3.921329     -0.168635      0.793963
  C      -1.837333     -0.210209      0.272365
  H      -1.207291      0.246847     -0.494013
  C      -1.619754     -1.722604      0.269188
  H      -1.839404     -2.128875     -0.713641
  H      -0.587309     -1.959220      0.526684
  H      -2.261666     -2.210313      1.002533
  C      -1.407513      0.368703      1.607136
  O      -1.328047     -0.240628      2.618295
  O      -3.641378     -0.548793     -1.202056
  H      -4.556216     -0.425916     -1.398628
  O      -1.118830      1.662990      1.549864
  H      -0.910425      1.965399      2.425764
18
Coordinates from ORCA-job 6 Relaxed Surface Scan Step 19
  C      -3.496180      1.661421     -0.406232
  H      -3.198484      2.353752      0.375454
  H      -2.918853      1.877638     -1.306774
  H      -4.550908      1.839781     -0.632699
  C      -3.302148      0.205236     -0.000112
  H      -3.891211      0.008542      0.905449
  C      -1.834121     -0.192086      0.295875
  H      -1.199527      0.305727     -0.442798
  C      -1.602608     -1.700208      0.213220
  H      -1.800283     -2.054757     -0.793595
  H      -0.573733     -1.937514      0.480138
  H      -2.254788     -2.236057      0.902645
  C      -1.392035      0.317435      1.656308
  O      -1.091361     -0.365771      2.574084
  O      -3.743934     -0.630233     -1.032812
  H      -4.649209     -0.446398     -1.226251
  O      -1.361516      1.642333      1.742695
  H      -1.104381      1.879477      2.625830
18
Coordinates from ORCA-job 6 Relaxed Surface Scan Step 20
  C      -3.439042      1.660736     -0.508549
  H      -3.046950      2.400681      0.182777
  H      -2.911582      1.747834     -1.460375
  H      -4.493158      1.889655     -0.687787
  C      -3.300367      0.240572      0.026995
  H      -3.867011      0.156243      0.962746
  C      -1.835650     -0.181780      0.313460
  H      -1.192065      0.335561     -0.405831
  C      -1.598140     -1.685384      0.180164
  H      -1.807748     -2.009614     -0.834404
  H      -0.565334     -1.922401      0.427578
  H      -2.240922     -2.247470      0.857835
  C      -1.372282      0.289238      1.681541
  O      -0.822348     -0.384316      2.483222
  O      -3.818412     -0.664246     -0.907592
  H      -4.719477     -0.450664     -1.089893
  O      -1.625403      1.571529      1.918895
  H      -1.309387      1.782144      2.789643
18
Coordinates from ORCA-job 6 Relaxed Surface Scan Step 21
  C      -3.413712      1.679677     -0.506184
  H      -3.024920      2.406077      0.201169
  H      -2.875724      1.776654     -1.451286
  H      -4.463438      1.921980     -0.693446
  C      -3.294253      0.248447      0.005874
  H      -3.878445      0.144408      0.927232
  C      -1.842953     -0.190228      0.304569
  H      -1.193200      0.269436     -0.449014
  C      -1.642814     -1.706593      0.234090
  H      -1.874115     -2.069524     -0.762184
  H      -0.613934     -1.956277      0.481163
  H      -2.295220     -2.221228      0.941904
  C      -1.306844      0.322726      1.632872
  O      -0.443874     -0.201036      2.249998
  O      -3.796924     -0.632755     -0.961542
  H      -4.692710     -0.410164     -1.158059
  O      -1.865795      1.448572      2.058951
  H      -1.446403      1.698148      2.874319
18
Coordinates from ORCA-job 6 Relaxed Surface Scan Step 22
  C      -3.401084      1.703557     -0.468780
  H      -3.051652      2.391039      0.296638
  H      -2.827039      1.863322     -1.383597
  H      -4.444950      1.947842     -0.683291
  C      -3.285987      0.245712     -0.037006
  H      -3.896158      0.079520      0.857236
  C      -1.846988     -0.199654      0.274145
  H      -1.199507      0.174285     -0.525713
  C      -1.695302     -1.726204      0.322586
  H      -1.965407     -2.159662     -0.635119
  H      -0.667139     -1.988586      0.561089
  H      -2.346299     -2.158892      1.085954
  C      -1.249444      0.380640      1.546430
  O      -0.183524      0.076150      1.960562
  O      -3.741541     -0.583271     -1.073037
  H      -4.635859     -0.367942     -1.283426
  O      -2.005047      1.267775      2.179865
  H      -1.522353      1.582689      2.935888
18
Coordinates from ORCA-job 6 Relaxed Surface Scan Step 23
  C      -3.383648      1.720549     -0.445812
  H      -3.064782      2.372236      0.364582
  H      -2.778326      1.926609     -1.330578
  H      -4.420093      1.973548     -0.683815
  C      -3.277817      0.245816     -0.074655
  H      -3.903576      0.043615      0.800612
  C      -1.846366     -0.206027      0.243075
  H      -1.204354      0.099294     -0.587146
  C      -1.730875     -1.730641      0.394941
  H      -2.052404     -2.220676     -0.519173
  H      -0.699307     -2.007355      0.605889
  H      -2.358875     -2.090018      1.213880
  C      -1.222607      0.431054      1.470798
  O      -0.072251      0.342904      1.733407
  O      -3.705240     -0.544829     -1.151833
  H      -4.602380     -0.341715     -1.362176
  O      -2.067699      1.074289      2.266209
  H      -1.574679      1.439665      2.992219
18
Coordinates from ORCA-job 6 Relaxed Surface Scan Step 24
  C      -3.364651      1.731984     -0.434280
  H      -3.064038      2.356551      0.405556
  H      -2.737480      1.966822     -1.296156
  H      -4.394525      1.996549     -0.686817
  C      -3.270164      0.247303     -0.103814
  H      -3.905215      0.027135      0.759952
  C      -1.843849     -0.212572      0.218803
  H      -1.206279      0.042344     -0.629550
  C      -1.758053     -1.729112      0.450053
  H      -2.113927     -2.257485     -0.430036
  H      -0.727457     -2.023543      0.646718
  H      -2.371223     -2.029452      1.302842
  C      -1.213841      0.475276      1.411703
  O      -0.046925      0.601419      1.559835
  O      -3.683446     -0.518054     -1.203842
  H      -4.584586     -0.327043     -1.408354
  O      -2.081542      0.886334      2.329166
  H      -1.598078      1.293863      3.038647
