23
Coordinates from ORCA-job 13 Relaxed Surface Scan Step 1
  C     -24.122238    -63.005599    -14.315284
  O     -23.573387    -62.607160    -13.070444
  C     -23.883781    -61.410750    -12.599938
  O     -24.596727    -60.656563    -13.169803
  C     -23.224697    -61.154523    -11.267769
  C     -23.499540    -59.763368    -10.709040
  C     -22.808591    -59.478373     -9.373363
  C     -23.303462    -60.318737     -8.198339
  H     -25.209413    -62.984190    -14.249356
  H     -23.828727    -62.288684    -15.081013
  H     -22.153179    -61.326736    -11.397609
  H     -23.568621    -61.942717    -10.594968
  H     -23.177114    -59.023381    -11.443627
  H     -24.578153    -59.625603    -10.604012
  H     -22.955207    -58.421702     -9.135456
  H     -21.727773    -59.612221     -9.486821
  C     -23.612924    -64.392508    -14.628747
  H     -23.914452    -65.099787    -13.855429
  H     -24.018274    -64.731087    -15.583410
  H     -22.524389    -64.399807    -14.693838
  H     -24.382180    -60.208294     -8.062094
  H     -23.093136    -61.381464     -8.333514
  H     -22.820139    -60.009605     -7.269595
23
Coordinates from ORCA-job 13 Relaxed Surface Scan Step 2
  C     -24.107514    -62.999749    -14.323401
  O     -23.577864    -62.606812    -13.068521
  C     -23.872905    -61.401727    -12.610409
  O     -24.557931    -60.635893    -13.198600
  C     -23.232722    -61.151204    -11.267990
  C     -23.521738    -59.765483    -10.703191
  C     -22.819725    -59.473001     -9.375055
  C     -23.282702    -60.327643     -8.197411
  H     -25.194987    -62.950621    -14.283175
  H     -23.778268    -62.295412    -15.086336
  H     -22.158670    -61.315773    -11.388347
  H     -23.578116    -61.946170    -10.604243
  H     -23.218802    -59.019255    -11.439493
  H     -24.601213    -59.643820    -10.585638
  H     -22.983851    -58.420474     -9.130359
  H     -21.738151    -59.585423     -9.503392
  C     -23.625819    -64.400853    -14.616568
  H     -23.963126    -65.095432    -13.846516
  H     -24.016880    -64.735338    -15.578612
  H     -22.536575    -64.435639    -14.655792
  H     -24.361048    -60.236373     -8.044813
  H     -23.056421    -61.385952     -8.341300
  H     -22.791075    -60.014812     -7.274306
23
Coordinates from ORCA-job 13 Relaxed Surface Scan Step 3
  C     -24.092604    -62.993879    -14.331028
  O     -23.583459    -62.607351    -13.065689
  C     -23.858003    -61.392350    -12.621310
  O     -24.509507    -60.613010    -13.229531
  C     -23.237277    -61.147791    -11.268574
  C     -23.544836    -59.768968    -10.696787
  C     -22.833591    -59.466210     -9.375996
  C     -23.261747    -60.337167     -8.197119
  H     -25.178950    -62.914776    -14.318089
  H     -23.725389    -62.303787    -15.089669
  H     -22.160194    -61.300135    -11.380051
  H     -23.580441    -61.951580    -10.614732
  H     -23.263229    -59.016185    -11.434618
  H     -24.625101    -59.666431    -10.567128
  H     -23.019118    -58.418896     -9.124307
  H     -21.751403    -59.552826     -9.518238
  C     -23.642422    -64.409477    -14.603942
  H     -24.017776    -65.089597    -13.838605
  H     -24.018444    -64.739345    -15.573547
  H     -22.553909    -64.474271    -14.615635
  H     -24.339822    -60.271299     -8.030078
  H     -23.013487    -61.389270     -8.350170
  H     -22.765398    -60.018258     -7.278624
23
Coordinates from ORCA-job 13 Relaxed Surface Scan Step 4
  C     -24.074990    -62.987146    -14.339541
  O     -23.590349    -62.608436    -13.062256
  C     -23.836920    -61.381753    -12.633941
  O     -24.446029    -60.586382    -13.265093
  C     -23.238868    -61.144462    -11.269504
  C     -23.571553    -59.775152    -10.689151
  C     -22.852178    -59.457559     -9.376396
  C     -23.237746    -60.347227     -8.196825
  H     -25.157942    -62.871554    -14.359125
  H     -23.662656    -62.315443    -15.091508
  H     -22.158153    -61.279287    -11.371226
  H     -23.576784    -61.959684    -10.627721
  H     -23.317081    -59.014461    -11.428371
  H     -24.652527    -59.698356    -10.545934
  H     -23.065465    -58.417482     -9.116784
  H     -21.769965    -59.511129     -9.533921
  C     -23.664995    -64.419037    -14.589850
  H     -24.085451    -65.080462    -13.831607
  H     -24.023255    -64.743318    -15.568029
  H     -22.579417    -64.520398    -14.568844
  H     -24.314829    -60.314209     -8.014211
  H     -22.960953    -61.390645     -8.360268
  H     -22.737999    -60.019277     -7.283361
23
Coordinates from ORCA-job 13 Relaxed Surface Scan Step 5
  C     -24.053926    -62.979104    -14.347868
  O     -23.596629    -62.608832    -13.058074
  C     -23.794364    -61.365609    -12.653338
  O     -24.343597    -60.550230    -13.313415
  C     -23.218270    -61.134111    -11.278080
  C     -23.603122    -59.786029    -10.680398
  C     -22.885692    -59.445669     -9.372562
  C     -23.213947    -60.364349     -8.197888
  H     -25.128202    -62.809561    -14.408028
  H     -23.581553    -62.338658    -15.091768
  H     -22.132141    -61.223656    -11.378086
  H     -23.526363    -61.971661    -10.651233
  H     -23.389875    -59.009765    -11.415942
  H     -24.685040    -59.757964    -10.524245
  H     -23.146449    -58.419792     -9.100271
  H     -21.803990    -59.444700     -9.542516
  C     -23.708236    -64.432871    -14.567349
  H     -24.188643    -65.062612    -13.817791
  H     -24.047098    -64.751216    -15.554344
  H     -22.630645    -64.588369    -14.505578
  H     -24.289314    -60.386366     -8.003749
  H     -22.887837    -61.391281     -8.374472
  H     -22.721169    -60.020455     -7.286473
23
Coordinates from ORCA-job 13 Relaxed Surface Scan Step 6
  C     -24.023718    -62.968278    -14.360180
  O     -23.604300    -62.609997    -13.054093
  C     -23.736542    -61.350772    -12.674360
  O     -24.200972    -60.511114    -13.368751
  C     -23.195441    -61.129594    -11.282414
  C     -23.645672    -59.809217    -10.668286
  C     -22.931730    -59.429747     -9.369693
  C     -23.178672    -60.375913     -8.197014
  H     -25.080199    -62.728933    -14.473799
  H     -23.474992    -62.371358    -15.087701
  H     -22.104708    -61.166492    -11.370975
  H     -23.473927    -61.991203    -10.675846
  H     -23.488101    -59.019501    -11.403006
  H     -24.725340    -59.844444    -10.495622
  H     -23.255689    -58.425039     -9.086603
  H     -21.855465    -59.356091     -9.557259
  C     -23.765729    -64.444775    -14.545795
  H     -24.322116    -65.030244    -13.813091
  H     -24.077891    -64.754552    -15.544253
  H     -22.705063    -64.670222    -14.430251
  H     -24.246686    -60.468728     -7.983966
  H     -22.790802    -61.378374     -8.389100
  H     -22.692350    -60.008272     -7.291409
23
Coordinates from ORCA-job 13 Relaxed Surface Scan Step 7
  C     -23.983988    -62.953577    -14.373278
  O     -23.604349    -62.608799    -13.051196
  C     -23.630495    -61.335128    -12.701993
  O     -23.970315    -60.469525    -13.436247
  C     -23.134475    -61.124641    -11.290245
  C     -23.697090    -59.857233    -10.655546
  C     -23.010505    -59.410387     -9.364371
  C     -23.138770    -60.384248     -8.195544
  H     -25.003380    -62.613862    -14.551259
  H     -23.338888    -62.429827    -15.077654
  H     -22.043107    -61.066973    -11.363063
  H     -23.354634    -62.019948    -10.710734
  H     -23.624512    -59.053127    -11.387545
  H     -24.766485    -59.997354    -10.469034
  H     -23.436308    -58.447400     -9.071616
  H     -21.950968    -59.221708     -9.566060
  C     -23.864220    -64.452070    -14.518465
  H     -24.516082    -64.963226    -13.809259
  H     -24.149564    -64.752088    -15.527854
  H     -22.839343    -64.778092    -14.338170
  H     -24.187754    -60.589202     -7.966791
  H     -22.652470    -61.339681     -8.403191
  H     -22.678404    -59.974765     -7.294354
23
Coordinates from ORCA-job 13 Relaxed Surface Scan Step 8
  C     -23.933206    -62.929125    -14.373213
  O     -23.569949    -62.589823    -13.044771
  C     -23.407915    -61.314594    -12.745681
  O     -23.560515    -60.439364    -13.530669
  C     -22.971661    -61.097832    -11.314065
  C     -23.751359    -59.958269    -10.659638
  C     -23.163203    -59.405720     -9.361316
  C     -23.107313    -60.401289     -8.205337
  H     -24.873797    -62.439145    -14.621098
  H     -23.176996    -62.547016    -15.057702
  H     -21.907763    -60.845841    -11.360566
  H     -23.059721    -62.033603    -10.766176
  H     -23.817683    -59.144046    -11.381490
  H     -24.779333    -60.289935    -10.479472
  H     -23.763481    -58.543497     -9.060274
  H     -22.157929    -59.019443     -9.558107
  C     -24.050302    -64.432517    -14.456417
  H     -24.811027    -64.800507    -13.767175
  H     -24.329464    -64.728419    -15.468741
  H     -23.102004    -64.909434    -14.206536
  H     -24.099633    -60.800466     -7.980227
  H     -22.452805    -61.247054     -8.426494
  H     -22.729047    -59.925921     -7.298302
23
Coordinates from ORCA-job 13 Relaxed Surface Scan Step 9
  C     -23.749692    -62.867816    -14.226866
  O     -23.470748    -62.301374    -12.957715
  C     -22.710703    -61.219505    -12.903976
  O     -22.247983    -60.707600    -13.866505
  C     -22.513701    -60.733972    -11.490804
  C     -23.828676    -60.327341    -10.816261
  C     -23.651750    -59.685545     -9.438497
  C     -23.068844    -60.607297     -8.370192
  H     -24.237362    -62.120768    -14.851806
  H     -22.811649    -63.135090    -14.711759
  H     -21.824224    -59.892268    -11.536377
  H     -22.032183    -61.539373    -10.933319
  H     -24.348031    -59.616391    -11.464887
  H     -24.476404    -61.202777    -10.735734
  H     -24.629887    -59.331018     -9.102998
  H     -23.024691    -58.793584     -9.532657
  C     -24.630083    -64.076905    -14.017125
  H     -25.566541    -63.795625    -13.534188
  H     -24.862548    -64.539145    -14.977670
  H     -24.129932    -64.816157    -13.390562
  H     -23.671657    -61.511940     -8.257795
  H     -22.048203    -60.915194     -8.604906
  H     -23.040612    -60.106176     -7.400868
23
Coordinates from ORCA-job 13 Relaxed Surface Scan Step 10
  C     -23.706865    -62.870885    -14.245668
  O     -23.509873    -62.270939    -12.976246
  C     -22.649510    -61.271751    -12.879182
  O     -22.031559    -60.859319    -13.801638
  C     -22.522819    -60.749121    -11.469637
  C     -23.859551    -60.498534    -10.767786
  C     -23.736765    -59.743006     -9.442975
  C     -22.973993    -60.485591     -8.348584
  H     -24.035971    -62.110241    -14.952305
  H     -22.755917    -63.260535    -14.606695
  H     -21.930265    -59.837148    -11.529997
  H     -21.932419    -61.484446    -10.917114
  H     -24.503770    -59.918425    -11.434350
  H     -24.367932    -61.451124    -10.607778
  H     -24.745666    -59.523975     -9.083649
  H     -23.263751    -58.772528     -9.622365
  C     -24.733679    -63.967542    -14.091264
  H     -25.680945    -63.563947    -13.732025
  H     -24.907682    -64.452289    -15.053070
  H     -24.391357    -64.721703    -13.381833
  H     -23.420626    -61.463227     -8.150341
  H     -21.927299    -60.646180     -8.614115
  H     -22.987892    -59.920405     -7.414848
23
Coordinates from ORCA-job 13 Relaxed Surface Scan Step 11
  C     -23.672278    -62.888286    -14.244758
  O     -23.544040    -62.230671    -12.994959
  C     -22.596264    -61.320796    -12.858406
  O     -21.846285    -61.033167    -13.729100
  C     -22.534596    -60.727254    -11.471012
  C     -23.867218    -60.626949    -10.729875
  C     -23.799021    -59.809245     -9.438170
  C     -22.912543    -60.404009     -8.346503
  H     -23.843222    -62.145085    -15.022279
  H     -22.736248    -63.393913    -14.478301
  H     -22.063947    -59.750059    -11.579418
  H     -21.827771    -61.349143    -10.914883
  H     -24.605368    -60.165941    -11.390983
  H     -24.241119    -61.629982    -10.516126
  H     -24.815271    -59.705154     -9.049124
  H     -23.460154    -58.794494     -9.669413
  C     -24.821121    -63.863500    -14.145188
  H     -25.751502    -63.344246    -13.912839
  H     -24.946382    -64.388461    -15.093366
  H     -24.636306    -64.601726    -13.364095
  H     -23.223645    -61.421602     -8.096819
  H     -21.862820    -60.441108     -8.644137
  H     -22.968983    -59.808066     -7.433713
23
Coordinates from ORCA-job 13 Relaxed Surface Scan Step 12
  C     -23.647939    -62.912122    -14.234448
  O     -23.567190    -62.198653    -13.011462
  C     -22.552826    -61.373082    -12.833056
  O     -21.707086    -61.204255    -13.645385
  C     -22.549668    -60.695823    -11.481588
  C     -23.861636    -60.717911    -10.701153
  C     -23.838541    -59.867615     -9.428723
  C     -22.870803    -60.347759     -8.349546
  H     -23.681449    -62.201769    -15.059280
  H     -22.746227    -63.510503    -14.357212
  H     -22.211296    -59.673641    -11.658709
  H     -21.747487    -61.179424    -10.918770
  H     -24.663504    -60.355254    -11.347841
  H     -24.121519    -61.748927    -10.452543
  H     -24.849417    -59.853002     -9.012955
  H     -23.606487    -58.830181     -9.689865
  C     -24.886701    -63.775011    -14.192545
  H     -25.781448    -63.163562    -14.070968
  H     -24.978084    -64.339335    -15.121785
  H     -24.839199    -64.481620    -13.363274
  H     -23.074004    -61.385014     -8.071267
  H     -21.829973    -60.288537     -8.673428
  H     -22.963622    -59.739858     -7.447665
23
Coordinates from ORCA-job 13 Relaxed Surface Scan Step 13
  C     -23.628893    -62.938806    -14.222108
  O     -23.584609    -62.175630    -13.027414
  C     -22.520652    -61.429143    -12.799993
  O     -21.603016    -61.369105    -13.547148
  C     -22.572835    -60.665327    -11.495600
  C     -23.852002    -60.788176    -10.672416
  C     -23.862555    -59.916770     -9.413821
  C     -22.834514    -60.301300     -8.352172
  H     -23.538837    -62.268454    -15.075685
  H     -22.773115    -63.611996    -14.245699
  H     -22.374099    -59.622628    -11.754237
  H     -21.698724    -60.996849    -10.932395
  H     -24.702619    -60.512684    -11.298149
  H     -24.010085    -61.833404    -10.396508
  H     -24.860779    -59.973264     -8.971934
  H     -23.719015    -58.868908     -9.696574
  C     -24.934607    -63.697338    -14.245289
  H     -25.782187    -63.011530    -14.222905
  H     -24.999874    -64.296807    -15.154505
  H     -25.010836    -64.364594    -13.386120
  H     -22.949730    -61.346044     -8.052496
  H     -21.809341    -60.167491     -8.702347
  H     -22.953181    -59.686611     -7.457950
23
Coordinates from ORCA-job 13 Relaxed Surface Scan Step 14
  C     -23.613047    -62.965980    -14.211454
  O     -23.603225    -62.156048    -13.047122
  C     -22.503212    -61.486489    -12.758887
  O     -21.527087    -61.530023    -13.429079
  C     -22.609750    -60.639389    -11.510635
  C     -23.841403    -60.852040    -10.634950
  C     -23.876384    -59.961778     -9.389877
  C     -22.792414    -60.252955     -8.354471
  H     -23.402771    -62.342812    -15.079552
  H     -22.814197    -63.702587    -14.138753
  H     -22.558883    -59.601915    -11.853436
  H     -21.683669    -60.811570    -10.962325
  H     -24.735121    -60.664076    -11.231181
  H     -23.897970    -61.901288    -10.333206
  H     -24.854149    -60.081956     -8.916172
  H     -23.817825    -58.911266     -9.692803
  C     -24.968898    -63.623274    -14.313326
  H     -25.758402    -62.874624    -14.387076
  H     -25.009355    -64.255780    -15.201361
  H     -25.165701    -64.243971    -13.438569
  H     -22.825229    -61.297073     -8.033208
  H     -21.789934    -60.055296     -8.738161
  H     -22.927478    -59.630669     -7.467863
23
Coordinates from ORCA-job 13 Relaxed Surface Scan Step 15
  C     -23.601404    -62.992612    -14.204250
  O     -23.626323    -62.134743    -13.075190
  C     -22.502451    -61.545377    -12.710162
  O     -21.477602    -61.697139    -13.284793
  C     -22.660273    -60.624335    -11.522393
  C     -23.826075    -60.922836    -10.582573
  C     -23.884622    -60.009357     -9.355394
  C     -22.740749    -60.187362     -8.359641
  H     -23.264488    -62.427775    -15.072430
  H     -22.876513    -63.786825    -14.031609
  H     -22.762671    -59.616769    -11.937973
  H     -21.701101    -60.640761    -11.007839
  H     -24.758931    -60.834178    -11.139809
  H     -23.770689    -61.964510    -10.252929
  H     -24.829819    -60.197405     -8.839559
  H     -23.924767    -58.964942     -9.681697
  C     -24.993259    -63.543304    -14.404742
  H     -25.707773    -62.737818    -14.577658
  H     -25.008593    -64.209324    -15.268743
  H     -25.317140    -64.106791    -13.529080
  H     -22.678146    -61.221924     -8.013060
  H     -21.772978    -59.922525     -8.788956
  H     -22.889738    -59.554249     -7.482990
23
Coordinates from ORCA-job 13 Relaxed Surface Scan Step 16
  C     -23.599243    -63.018959    -14.200484
  O     -23.652124    -62.109073    -13.114150
  C     -22.516958    -61.612814    -12.654075
  O     -21.459316    -61.888749    -13.110671
  C     -22.715520    -60.630907    -11.524368
  C     -23.792979    -61.015705    -10.510431
  C     -23.891276    -60.068954     -9.311615
  C     -22.686381    -60.083169     -8.373894
  H     -23.122083    -62.531553    -15.049706
  H     -22.978481    -63.869579    -13.922600
  H     -22.970065    -59.672251    -11.987443
  H     -21.739356    -60.508152    -11.060698
  H     -24.756102    -61.051795    -11.019786
  H     -23.603538    -62.031021    -10.147727
  H     -24.782855    -60.340307     -8.740359
  H     -24.063970    -59.048345     -9.668570
  C     -25.011768    -63.443497    -14.524894
  H     -25.621329    -62.582553    -14.801373
  H     -25.006614    -64.145139    -15.360360
  H     -25.476491    -63.931511    -13.667515
  H     -22.492507    -61.090550     -7.997245
  H     -21.776611    -59.731839     -8.863556
  H     -22.860535    -59.436437     -7.511947
23
Coordinates from ORCA-job 13 Relaxed Surface Scan Step 17
  C     -23.615245    -63.039078    -14.203518
  O     -23.672621    -62.084627    -13.156767
  C     -22.539269    -61.695984    -12.596462
  O     -21.479491    -62.103822    -12.933230
  C     -22.754604    -60.674786    -11.507365
  C     -23.722937    -61.140304    -10.416373
  C     -23.896480    -60.147508     -9.264629
  C     -22.654359    -59.929367     -8.404190
  H     -23.001701    -62.644131    -15.012259
  H     -23.128250    -63.941688    -13.836842
  H     -23.143536    -59.768889    -11.980689
  H     -21.771051    -60.444639    -11.105152
  H     -24.694772    -61.332255    -10.872165
  H     -23.377125    -62.097904    -10.013517
  H     -24.706316    -60.510662     -8.626498
  H     -24.237628    -59.186927     -9.664088
  C     -25.027064    -63.316615    -14.662410
  H     -25.502264    -62.405023    -15.026285
  H     -25.018219    -64.047992    -15.471943
  H     -25.629391    -63.714390    -13.844939
  H     -22.290636    -60.873294     -7.990789
  H     -21.836032    -59.477036     -8.966888
  H     -22.877113    -59.265938     -7.566467
23
Coordinates from ORCA-job 13 Relaxed Surface Scan Step 18
  C     -23.646119    -63.043307    -14.213377
  O     -23.677233    -62.071312    -13.182024
  C     -22.550048    -61.788423    -12.548875
  O     -21.516800    -62.304809    -12.810159
  C     -22.749698    -60.754269    -11.470553
  C     -23.619989    -61.272211    -10.319022
  C     -23.900661    -60.232646     -9.231790
  C     -22.674062    -59.762577     -8.453995
  H     -22.939464    -62.727192    -14.979624
  H     -23.282882    -63.985529    -13.804939
  H     -23.225545    -59.882360    -11.925229
  H     -21.760143    -60.465443    -11.124511
  H     -24.569932    -61.617698    -10.729749
  H     -23.137268    -62.146372     -9.870825
  H     -24.618721    -60.664587     -8.529753
  H     -24.401843    -59.369304     -9.680874
  C     -25.043367    -63.180990    -14.769840
  H     -25.394088    -62.231221    -15.174984
  H     -25.053937    -63.922564    -15.570032
  H     -25.740044    -63.500848    -13.994183
  H     -22.149318    -60.605668     -7.997886
  H     -21.961593    -59.233035     -9.088880
  H     -22.963347    -59.080496     -7.652366
23
Coordinates from ORCA-job 13 Relaxed Surface Scan Step 19
  C     -23.679554    -63.038379    -14.219524
  O     -23.671613    -62.061463    -13.192552
  C     -22.551610    -61.871166    -12.512874
  O     -21.555921    -62.473692    -12.731240
  C     -22.719687    -60.832138    -11.434706
  C     -23.509081    -61.378837    -10.236230
  C     -23.900437    -60.310009     -9.213801
  C     -22.727819    -59.629546     -8.512249
  H     -22.915355    -62.789012    -14.954491
  H     -23.417448    -64.006182    -13.793645
  H     -23.250037    -59.980625    -11.864705
  H     -21.723841    -60.510339    -11.138298
  H     -24.419522    -61.853958    -10.606831
  H     -22.922529    -62.162877     -9.748462
  H     -24.538766    -60.779353     -8.460544
  H     -24.520767    -59.554497     -9.705874
  C     -25.057824    -63.058125    -14.836732
  H     -25.306697    -62.084179    -15.259460
  H     -25.097831    -63.801186    -15.634621
  H     -25.812892    -63.311263    -14.091674
  H     -22.087259    -60.361690     -8.014385
  H     -22.105661    -59.063317     -9.207771
  H     -23.083954    -58.931026     -7.752798
23
Coordinates from ORCA-job 13 Relaxed Surface Scan Step 20
  C     -23.712448    -63.034472    -14.220798
  O     -23.666091    -62.050367    -13.201744
  C     -22.560596    -61.941667    -12.481451
  O     -21.608491    -62.622993    -12.658018
  C     -22.694088    -60.892189    -11.408988
  C     -23.401664    -61.455317    -10.165286
  C     -23.891485    -60.378364     -9.195515
  C     -22.787791    -59.530581     -8.568440
  H     -22.903352    -62.854278    -14.927337
  H     -23.544544    -64.015409    -13.777657
  H     -23.270464    -60.060514    -11.815571
  H     -21.693576    -60.540538    -11.165293
  H     -24.265124    -62.040537    -10.490088
  H     -22.729650    -62.148611     -9.652478
  H     -24.457084    -60.869141     -8.398996
  H     -24.602474    -59.728233     -9.714344
  C     -25.063474    -62.951568    -14.890757
  H     -25.217523    -61.965796    -15.330906
  H     -25.132513    -63.698157    -15.683357
  H     -25.863988    -63.135230    -14.173292
  H     -22.062528    -60.154916     -8.040789
  H     -22.243621    -58.949308     -9.315299
  H     -23.203535    -58.824676     -7.847063
23
Coordinates from ORCA-job 13 Relaxed Surface Scan Step 21
  C     -23.754024    -63.060116    -14.245588
  O     -23.710115    -62.041994    -13.260021
  C     -22.695367    -62.034091    -12.411046
  O     -21.824441    -62.835806    -12.441862
  C     -22.820530    -60.936128    -11.386674
  C     -23.285697    -61.508176    -10.036666
  C     -23.815917    -60.446675     -9.071716
  C     -22.783304    -59.416233     -8.622181
  H     -22.847643    -63.012470    -14.847600
  H     -23.766942    -64.032017    -13.753647
  H     -23.536054    -60.199634    -11.748880
  H     -21.845697    -60.460805    -11.283975
  H     -24.089560    -62.226927    -10.220257
  H     -22.467818    -62.071896     -9.582411
  H     -24.215588    -60.954825     -8.190131
  H     -24.664573    -59.935881     -9.536579
  C     -24.991136    -62.845339    -15.084871
  H     -24.963404    -61.870498    -15.572838
  H     -25.057269    -63.615203    -15.855118
  H     -25.889988    -62.894936    -14.469349
  H     -21.929420    -59.898440     -8.140076
  H     -22.402900    -58.825765     -9.458028
  H     -23.218717    -58.719005     -7.903953
23
Coordinates from ORCA-job 13 Relaxed Surface Scan Step 22
  C     -23.747523    -63.072720    -14.335120
  O     -23.945613    -62.131868    -13.293350
  C     -23.377058    -62.361318    -12.121825
  O     -22.717540    -63.319317    -11.899226
  C     -23.657752    -61.248372    -11.142957
  C     -23.226572    -61.573458     -9.717898
  C     -23.441182    -60.436343     -8.716245
  C     -22.570687    -59.202685     -8.944494
  H     -22.680097    -63.172175    -14.528452
  H     -24.111179    -64.046738    -14.010245
  H     -24.723450    -61.016425    -11.198127
  H     -23.143272    -60.366699    -11.532622
  H     -23.776552    -62.454434     -9.380262
  H     -22.174575    -61.865667     -9.722599
  H     -23.239510    -60.826394     -7.715374
  H     -24.496055    -60.142679     -8.715902
  C     -24.489355    -62.582259    -15.555849
  H     -24.115129    -61.607646    -15.870937
  H     -24.357192    -63.285664    -16.379312
  H     -25.556065    -62.489069    -15.349354
  H     -21.509926    -59.465366     -8.949923
  H     -22.794794    -58.707633     -9.891369
  H     -22.725025    -58.467929     -8.152027
23
Coordinates from ORCA-job 13 Relaxed Surface Scan Step 23
  C     -23.763414    -63.079270    -14.331457
  O     -23.938181    -62.130530    -13.292698
  C     -23.389961    -62.378739    -12.115128
  O     -22.766919    -63.359054    -11.885297
  C     -23.646423    -61.257761    -11.139130
  C     -23.198494    -61.575777     -9.717520
  C     -23.433406    -60.442218     -8.716296
  C     -22.592570    -59.189366     -8.951165
  H     -22.698353    -63.216790    -14.514198
  H     -24.164566    -64.039357    -14.009256
  H     -24.711751    -61.020170    -11.180631
  H     -23.133424    -60.381079    -11.541331
  H     -23.727378    -62.468148     -9.376823
  H     -22.140300    -61.845305     -9.728485
  H     -23.218536    -60.825207     -7.715446
  H     -24.494754    -60.173017     -8.712163
  C     -24.475338    -62.564462    -15.559966
  H     -24.063608    -61.604206    -15.872357
  H     -24.360258    -63.273231    -16.381390
  H     -25.540024    -62.433112    -15.364030
  H     -21.526025    -59.427452     -8.959540
  H     -22.831334    -58.702679     -9.898799
  H     -22.761088    -58.455929     -8.160361
23
Coordinates from ORCA-job 13 Relaxed Surface Scan Step 24
  C     -23.777388    -63.084496    -14.327533
  O     -23.931240    -62.128983    -13.291683
  C     -23.405569    -62.394441    -12.107554
  O     -22.817901    -63.394490    -11.870144
  C     -23.642010    -61.267100    -11.133956
  C     -23.175113    -61.577971     -9.716782
  C     -23.422362    -60.448102     -8.714318
  C     -22.612516    -59.177310     -8.961409
  H     -22.715680    -63.258651    -14.498055
  H     -24.214833    -64.029872    -14.009049
  H     -24.707934    -61.028720    -11.161025
  H     -23.135100    -60.392925    -11.548483
  H     -23.684664    -62.479618     -9.371743
  H     -22.112163    -61.828363     -9.736926
  H     -23.186943    -60.824647     -7.715621
  H     -24.489255    -60.202424     -8.697668
  C     -24.457333    -62.547171    -15.564488
  H     -24.009367    -61.602032    -15.873097
  H     -24.357404    -63.260558    -16.383896
  H     -25.519021    -62.379081    -15.380736
  H     -21.541075    -59.391577     -8.982391
  H     -22.873615    -58.698180     -9.906982
  H     -22.787617    -58.446148     -8.169930
