29
Coordinates from ORCA-job 3 Relaxed Surface Scan Step 1
  C     -27.006382    -66.868262    -12.966476
  O     -26.753357    -66.787532    -14.326882
  C     -25.475109    -66.488759    -14.690656
  C     -23.943282    -64.683794    -14.664905
  O     -25.223407    -65.156394    -14.367395
  C     -25.300440    -66.737420    -16.182656
  O     -25.358046    -68.121021    -16.382705
  S     -26.170312    -68.760501    -17.649919
  O     -25.644827    -68.005066    -18.781500
  O     -27.556802    -68.495484    -17.395226
  O     -25.764813    -70.131321    -17.603330
  C     -23.935157    -66.219695    -16.650816
  O     -23.808018    -66.188288    -18.032691
  C     -23.662559    -64.799069    -16.157234
  O     -24.446746    -63.890180    -16.860450
  C     -23.843846    -63.264495    -14.140931
  H     -26.864497    -65.906276    -12.469247
  H     -28.041398    -67.181110    -12.845418
  H     -24.765050    -67.129267    -14.144653
  H     -23.199315    -65.308624    -14.148843
  H     -26.108395    -66.225679    -16.704349
  H     -23.184318    -66.888130    -16.211175
  H     -22.598369    -64.586496    -16.325125
  H     -24.579513    -62.636740    -14.639281
  H     -22.849077    -62.853678    -14.324615
  H     -24.353953    -66.869890    -18.438254
  H     -24.495893    -64.212489    -17.751124
  H     -26.361085    -67.611197    -12.484323
  H     -24.035979    -63.250961    -13.067144
29
Coordinates from ORCA-job 3 Relaxed Surface Scan Step 2
  C     -26.982092    -66.881220    -12.941859
  O     -26.746990    -66.798365    -14.305420
  C     -25.474044    -66.492553    -14.684082
  C     -23.948407    -64.683691    -14.666725
  O     -25.222678    -65.162118    -14.354446
  C     -25.317091    -66.733294    -16.179634
  O     -25.380636    -68.118100    -16.373847
  S     -26.141923    -68.759249    -17.670530
  O     -25.357821    -68.254327    -18.791042
  O     -27.474972    -68.226668    -17.632454
  O     -26.006985    -70.162981    -17.435346
  C     -23.962499    -66.203694    -16.666174
  O     -23.864504    -66.148016    -18.049165
  C     -23.690649    -64.785965    -16.163972
  O     -24.491318    -63.875291    -16.846195
  C     -23.844995    -63.268314    -14.132956
  H     -26.839289    -65.918812    -12.445921
  H     -28.013805    -67.199785    -12.807457
  H     -24.755669    -67.134427    -14.150558
  H     -23.195237    -65.310788    -14.166972
  H     -26.136304    -66.227648    -16.689308
  H     -23.197862    -66.871344    -16.249289
  H     -22.630683    -64.565945    -16.347586
  H     -24.589432    -62.638739    -14.615711
  H     -22.854017    -62.853402    -14.327620
  H     -24.302873    -66.906295    -18.450573
  H     -24.558956    -64.192216    -17.737553
  H     -26.326586    -67.620881    -12.468488
  H     -24.021630    -63.263687    -13.056440
29
Coordinates from ORCA-job 3 Relaxed Surface Scan Step 3
  C     -26.962484    -66.876710    -12.895847
  O     -26.754347    -66.790024    -14.263651
  C     -25.485591    -66.491318    -14.665506
  C     -23.950700    -64.690647    -14.672457
  O     -25.219089    -65.165156    -14.331797
  C     -25.361040    -66.724905    -16.165048
  O     -25.445484    -68.110094    -16.351232
  S     -26.067494    -68.759826    -17.714782
  O     -25.025964    -68.510198    -18.703986
  O     -27.274567    -68.020767    -17.965456
  O     -26.220371    -70.135412    -17.357779
  C     -24.018973    -66.192806    -16.684614
  O     -23.966231    -66.115652    -18.069343
  C     -23.733469    -64.780019    -16.176843
  O     -24.552205    -63.861954    -16.827493
  C     -23.825890    -63.280851    -14.128595
  H     -26.801974    -65.917609    -12.399061
  H     -27.993842    -67.187589    -12.741316
  H     -24.762762    -67.141766    -14.148924
  H     -23.188112    -65.326291    -14.198401
  H     -26.188392    -66.217841    -16.658482
  H     -23.240684    -66.864337    -16.301060
  H     -22.678994    -64.558751    -16.387784
  H     -24.579067    -62.643027    -14.586319
  H     -22.837979    -62.869326    -14.344840
  H     -24.262014    -66.943968    -18.462001
  H     -24.653833    -64.172111    -17.717911
  H     -26.303614    -67.623589    -12.438914
  H     -23.974783    -63.285274    -13.047879
29
Coordinates from ORCA-job 3 Relaxed Surface Scan Step 4
  C     -26.937808    -66.872111    -12.837790
  O     -26.763353    -66.781397    -14.210061
  C     -25.501171    -66.492692    -14.641722
  C     -23.955856    -64.699754    -14.682878
  O     -25.216008    -65.170336    -14.307788
  C     -25.416240    -66.718417    -16.144869
  O     -25.533216    -68.101039    -16.331205
  S     -25.977804    -68.740097    -17.767391
  O     -24.731747    -68.745368    -18.522744
  O     -26.959275    -67.828242    -18.291914
  O     -26.444847    -70.040987    -17.401702
  C     -24.083426    -66.194596    -16.695893
  O     -24.068790    -66.111704    -18.082586
  C     -23.781750    -64.784189    -16.193237
  O     -24.617659    -63.862006    -16.816386
  C     -23.810005    -63.292532    -14.137622
  H     -26.754608    -65.917104    -12.341016
  H     -27.968205    -67.172838    -12.658146
  H     -24.772572    -67.151970    -14.145069
  H     -23.182537    -65.340150    -14.233236
  H     -26.245107    -66.196568    -16.618374
  H     -23.297026    -66.869853    -16.338205
  H     -22.733604    -64.563910    -16.433944
  H     -24.573016    -62.649958    -14.571832
  H     -22.826792    -62.884257    -14.379841
  H     -24.220319    -66.979781    -18.463950
  H     -24.752817    -64.167552    -17.703844
  H     -26.275707    -67.628006    -12.400891
  H     -23.928683    -63.300402    -13.053183
29
Coordinates from ORCA-job 3 Relaxed Surface Scan Step 5
  C     -26.929128    -66.872511    -12.819825
  O     -26.771760    -66.767333    -14.193171
  C     -25.512049    -66.486066    -14.637816
  C     -23.956193    -64.706092    -14.690063
  O     -25.214171    -65.168005    -14.299363
  C     -25.448113    -66.712661    -16.143009
  O     -25.561610    -68.097037    -16.311263
  S     -25.893094    -68.774662    -17.763546
  O     -24.573806    -69.042790    -18.302462
  O     -26.612547    -67.755497    -18.487654
  O     -26.640838    -69.942457    -17.410749
  C     -24.129230    -66.176741    -16.718034
  O     -24.146465    -66.060703    -18.105411
  C     -23.814673    -64.772570    -16.204180
  O     -24.663412    -63.840548    -16.794633
  C     -23.784571    -63.307622    -14.129954
  H     -26.728516    -65.925552    -12.314310
  H     -27.960442    -67.163705    -12.629899
  H     -24.782699    -67.152837    -14.153222
  H     -23.181448    -65.360435    -14.263656
  H     -26.286623    -66.197364    -16.606227
  H     -23.333387    -66.857641    -16.397005
  H     -22.772074    -64.550927    -16.466301
  H     -24.548744    -62.651314    -14.540971
  H     -22.801700    -62.906807    -14.385645
  H     -24.308102    -66.906372    -18.511597
  H     -24.821862    -64.132082    -17.682766
  H     -26.270132    -67.641046    -12.400956
  H     -23.882558    -63.328444    -13.043634
29
Coordinates from ORCA-job 3 Relaxed Surface Scan Step 6
  C     -26.971772    -66.820599    -12.827812
  O     -26.827477    -66.695023    -14.201237
  C     -25.561402    -66.453090    -14.655268
  C     -23.938868    -64.749457    -14.704775
  O     -25.213040    -65.154668    -14.302942
  C     -25.524694    -66.687531    -16.163767
  O     -25.630715    -68.082928    -16.274497
  S     -25.631909    -68.905726    -17.681513
  O     -24.254718    -69.275462    -17.873407
  O     -26.096438    -67.920349    -18.650427
  O     -26.538180    -69.983439    -17.435286
  C     -24.239418    -66.124268    -16.799440
  O     -24.359670    -65.909306    -18.170320
  C     -23.850858    -64.757472    -16.222135
  O     -24.679691    -63.765572    -16.736646
  C     -23.670094    -63.389392    -14.090972
  H     -26.722310    -65.893749    -12.307096
  H     -28.012723    -67.068847    -12.629175
  H     -24.852051    -67.151868    -14.189066
  H     -23.194570    -65.466406    -14.328435
  H     -26.392016    -66.199987    -16.607586
  H     -23.436374    -66.837334    -16.589158
  H     -22.809793    -64.566384    -16.513397
  H     -24.404866    -62.672290    -14.450921
  H     -22.672529    -63.035489    -14.358526
  H     -24.895205    -66.595877    -18.574020
  H     -24.866441    -64.016997    -17.631934
  H     -26.342865    -67.626151    -12.433611
  H     -23.739259    -63.452158    -13.003954
29
Coordinates from ORCA-job 3 Relaxed Surface Scan Step 7
  C     -26.857792    -66.987086    -12.865803
  O     -26.685645    -66.859728    -14.235638
  C     -25.437423    -66.511120    -14.660809
  C     -23.972923    -64.653831    -14.690795
  O     -25.214539    -65.177926    -14.323748
  C     -25.342875    -66.731336    -16.164422
  O     -25.347799    -68.116404    -16.359790
  S     -25.976870    -68.843228    -17.685768
  O     -24.962281    -69.793255    -18.035545
  O     -26.092470    -67.738201    -18.632549
  O     -27.232515    -69.384211    -17.262122
  C     -24.042756    -66.134980    -16.718969
  O     -24.024742    -66.057714    -18.107426
  C     -23.792998    -64.717495    -16.201240
  O     -24.660300    -63.822189    -16.819113
  C     -23.883855    -63.247323    -14.131546
  H     -26.705037    -66.037848    -12.347790
  H     -27.878113    -67.324251    -12.694741
  H     -24.678920    -67.137007    -14.166804
  H     -23.176222    -65.267561    -14.245094
  H     -26.205237    -66.257784    -16.629174
  H     -23.230296    -66.780894    -16.365786
  H     -22.752585    -64.455971    -16.435795
  H     -24.671342    -62.631224    -14.560440
  H     -22.917500    -62.797878    -14.368551
  H     -24.657407    -66.671829    -18.489177
  H     -24.754015    -64.117730    -17.715364
  H     -26.172323    -67.731455    -12.445934
  H     -24.003166    -63.270360    -13.047392
29
Coordinates from ORCA-job 3 Relaxed Surface Scan Step 8
  C     -26.807567    -67.054392    -12.880619
  O     -26.634780    -66.923812    -14.249821
  C     -25.399192    -66.534974    -14.672712
  C     -23.990435    -64.631515    -14.690539
  O     -25.217214    -65.195497    -14.332443
  C     -25.293320    -66.740614    -16.177063
  O     -25.265931    -68.119659    -16.409177
  S     -26.070310    -68.804901    -17.659236
  O     -25.325734    -70.008868    -17.871585
  O     -25.912617    -67.813117    -18.718361
  O     -27.424218    -68.958147    -17.216804
  C     -23.995502    -66.122213    -16.709715
  O     -23.949141    -66.061967    -18.096778
  C     -23.789696    -64.696377    -16.198897
  O     -24.671845    -63.828359    -16.834452
  C     -23.954868    -63.220048    -14.137917
  H     -26.695596    -66.098466    -12.364422
  H     -27.814058    -67.432345    -12.713580
  H     -24.621175    -67.138374    -14.180107
  H     -23.178122    -65.215585    -14.233234
  H     -26.159996    -66.272772    -16.641265
  H     -23.177749    -66.746393    -16.329227
  H     -22.753471    -64.408251    -16.420673
  H     -24.758003    -62.633044    -14.578449
  H     -23.001743    -62.739356    -14.367100
  H     -24.540400    -66.714969    -18.483348
  H     -24.748067    -64.132924    -17.729409
  H     -26.094120    -67.769094    -12.455377
  H     -24.085079    -63.241787    -13.055012
29
Coordinates from ORCA-job 3 Relaxed Surface Scan Step 9
  C     -26.773097    -67.087616    -12.876344
  O     -26.612707    -66.952282    -14.246468
  C     -25.386423    -66.544489    -14.677442
  C     -24.000617    -64.624719    -14.690682
  O     -25.218771    -65.205084    -14.330107
  C     -25.286155    -66.741519    -16.183956
  O     -25.249006    -68.120196    -16.420430
  S     -26.086165    -68.789714    -17.655523
  O     -25.587191    -70.130325    -17.661477
  O     -25.665787    -67.987333    -18.799030
  O     -27.470979    -68.619054    -17.324219
  C     -23.996956    -66.105937    -16.717707
  O     -23.959161    -66.029755    -18.103075
  C     -23.805779    -64.680756    -16.199980
  O     -24.701307    -63.820500    -16.827425
  C     -23.979901    -63.215204    -14.132340
  H     -26.673861    -66.130701    -12.359403
  H     -27.771758    -67.482936    -12.702531
  H     -24.596552    -67.140612    -14.194397
  H     -23.179335    -65.200740    -14.239132
  H     -26.162279    -66.282678    -16.640840
  H     -23.170455    -66.723221    -16.343854
  H     -22.774170    -64.379743    -16.425778
  H     -24.791811    -62.636144    -14.567210
  H     -23.033519    -62.722109    -14.363190
  H     -24.466612    -66.747956    -18.495611
  H     -24.779746    -64.122949    -17.722955
  H     -26.044307    -67.790465    -12.457175
  H     -24.105542    -63.243082    -13.049042
29
Coordinates from ORCA-job 3 Relaxed Surface Scan Step 10
  C     -26.747236    -67.096942    -12.852484
  O     -26.605131    -66.962570    -14.224804
  C     -25.385719    -66.548029    -14.670604
  C     -24.005856    -64.626117    -14.692250
  O     -25.217426    -65.210665    -14.317286
  C     -25.304954    -66.738647    -16.179393
  O     -25.273253    -68.119260    -16.408818
  S     -26.052762    -68.787610    -17.680305
  O     -25.809972    -70.182815    -17.483115
  O     -25.358667    -68.213046    -18.826629
  O     -27.414941    -68.347836    -17.567078
  C     -24.029629    -66.090885    -16.732668
  O     -24.026288    -65.991256    -18.116600
  C     -23.836787    -64.669400    -16.204887
  O     -24.747223    -63.807540    -16.808372
  C     -23.977264    -63.221147    -14.122920
  H     -26.648096    -66.138712    -12.338179
  H     -27.740925    -67.498802    -12.665158
  H     -24.587991    -67.144544    -14.201039
  H     -23.176721    -65.204976    -14.258990
  H     -26.191612    -66.287974    -16.623517
  H     -23.189990    -66.706100    -16.385256
  H     -22.810819    -64.361805    -16.446629
  H     -24.796867    -62.639568    -14.539602
  H     -23.035325    -62.725104    -14.365330
  H     -24.417080    -66.777684    -18.513187
  H     -24.848121    -64.106630    -17.702742
  H     -26.008403    -67.794156    -12.441541
  H     -24.084889    -63.257998    -13.037942
29
Coordinates from ORCA-job 3 Relaxed Surface Scan Step 11
  C     -26.724514    -67.093267    -12.807147
  O     -26.610314    -66.956062    -14.181882
  C     -25.396124    -66.548365    -14.651021
  C     -24.008341    -64.632944    -14.698413
  O     -25.212178    -65.214151    -14.294716
  C     -25.348671    -66.734502    -16.161652
  O     -25.336731    -68.117342    -16.381769
  S     -25.977717    -68.781123    -17.729283
  O     -26.021874    -70.170780    -17.397332
  O     -25.005980    -68.438512    -18.760688
  O     -27.243090    -68.121879    -17.905365
  C     -24.088434    -66.084235    -16.747214
  O     -24.131823    -65.967428    -18.129613
  C     -23.881767    -64.666530    -16.215336
  O     -24.809516    -63.800165    -16.785636
  C     -23.957483    -63.232024    -14.120711
  H     -26.607028    -66.137376    -12.292463
  H     -27.717182    -67.487872    -12.599459
  H     -24.594179    -67.152597    -14.199142
  H     -23.170419    -65.218594    -14.291957
  H     -26.242531    -66.283778    -16.589230
  H     -23.236646    -66.700805    -16.434188
  H     -22.863397    -64.357036    -16.484647
  H     -24.785188    -62.643822    -14.511272
  H     -23.019973    -62.738823    -14.385085
  H     -24.375480    -66.809763    -18.527895
  H     -24.944565    -64.094823    -17.676866
  H     -25.982816    -67.797482    -12.413859
  H     -24.035988    -63.275739    -13.033479
29
Coordinates from ORCA-job 3 Relaxed Surface Scan Step 12
  C     -26.696355    -67.090090    -12.753805
  O     -26.614637    -66.951848    -14.130729
  C     -25.408118    -66.552275    -14.628119
  C     -24.013865    -64.641104    -14.708332
  O     -25.207707    -65.219972    -14.272907
  C     -25.398568    -66.734121    -16.139700
  O     -25.416676    -68.117150    -16.357081
  S     -25.894403    -68.757575    -17.781840
  O     -26.258742    -70.092438    -17.423220
  O     -24.703337    -68.640334    -18.611836
  O     -26.969223    -67.907760    -18.224193
  C     -24.148423    -66.090560    -16.754134
  O     -24.226982    -65.970732    -18.136018
  C     -23.928000    -64.673485    -16.228201
  O     -24.871049    -63.806095    -16.771971
  C     -23.944783    -63.240838    -14.130976
  H     -26.558182    -66.136072    -12.240820
  H     -27.686962    -67.476604    -12.522002
  H     -24.600679    -67.162904    -14.195267
  H     -23.166471    -65.228827    -14.325131
  H     -26.294062    -66.270885    -16.548159
  H     -23.290108    -66.708887    -16.465461
  H     -22.917460    -64.363801    -16.524863
  H     -24.781113    -62.650498    -14.499318
  H     -23.013379    -62.749488    -14.419304
  H     -24.336768    -66.837251    -18.534057
  H     -25.037560    -64.099687    -17.658145
  H     -25.951373    -67.801187    -12.379639
  H     -23.994965    -63.285350    -13.042095
29
Coordinates from ORCA-job 3 Relaxed Surface Scan Step 13
  C     -26.687542    -67.088560    -12.735724
  O     -26.623505    -66.939260    -14.112454
  C     -25.419532    -66.547217    -14.622900
  C     -24.014279    -64.648069    -14.715727
  O     -25.205811    -65.218280    -14.264491
  C     -25.430549    -66.732210    -16.135234
  O     -25.445405    -68.117730    -16.333407
  S     -25.805070    -68.785528    -17.782411
  O     -26.446837    -70.012564    -17.425806
  O     -24.509247    -68.894083    -18.423730
  O     -26.657284    -67.811877    -18.424085
  C     -24.196091    -66.078196    -16.772582
  O     -24.308015    -65.928781    -18.151960
  C     -23.961838    -64.666291    -16.236761
  O     -24.916021    -63.791289    -16.748038
  C     -23.918304    -63.254390    -14.126358
  H     -26.531939    -66.140486    -12.216630
  H     -27.678961    -67.466415    -12.493225
  H     -24.611639    -67.164889    -14.201912
  H     -23.165959    -65.248680    -14.355343
  H     -26.334233    -66.276967    -16.533888
  H     -23.330349    -66.700220    -16.519965
  H     -22.958067    -64.355539    -16.554201
  H     -24.755249    -62.651324    -14.472005
  H     -22.987345    -62.770401    -14.428248
  H     -24.432215    -66.774523    -18.571874
  H     -25.106055    -64.073888    -17.632912
  H     -25.945276    -67.810851    -12.378266
  H     -23.947330    -63.309309    -13.037186
29
Coordinates from ORCA-job 3 Relaxed Surface Scan Step 14
  C     -26.735073    -67.037649    -12.735291
  O     -26.689770    -66.866515    -14.110625
  C     -25.477344    -66.516636    -14.635349
  C     -23.994207    -64.692244    -14.734197
  O     -25.205564    -65.204713    -14.266107
  C     -25.520081    -66.709270    -16.149546
  O     -25.533306    -68.105544    -16.295143
  S     -25.523604    -68.887620    -17.724547
  O     -26.288767    -70.065563    -17.460671
  O     -24.127007    -69.095248    -18.004479
  O     -26.147552    -67.936355    -18.636003
  C     -24.323211    -66.033443    -16.846143
  O     -24.546723    -65.793638    -18.200010
  C     -24.003824    -64.655494    -16.253627
  O     -24.937396    -63.718555    -16.685348
  C     -23.790160    -63.331217    -14.097952
  H     -26.522066    -66.108061    -12.203400
  H     -27.739628    -67.369426    -12.479392
  H     -24.688885    -67.170565    -14.235894
  H     -23.175126    -65.358596    -14.426508
  H     -26.447274    -66.276777    -16.524293
  H     -23.457143    -66.687411    -16.707769
  H     -23.001363    -64.376664    -16.603518
  H     -24.598612    -62.664292    -14.390013
  H     -22.841412    -62.894678    -14.416197
  H     -25.045768    -66.512316    -18.593503
  H     -25.160822    -63.960245    -17.574869
  H     -26.023784    -67.802733    -12.405833
  H     -23.784476    -63.426351    -13.011095
29
Coordinates from ORCA-job 3 Relaxed Surface Scan Step 15
  C     -26.616622    -67.187683    -12.785424
  O     -26.542576    -67.012562    -14.158833
  C     -25.352656    -66.560646    -14.649565
  C     -24.033045    -64.599848    -14.714595
  O     -25.207496    -65.223549    -14.287424
  C     -25.337847    -66.737811    -16.162041
  O     -25.249701    -68.115419    -16.389130
  S     -25.861917    -68.863470    -17.711420
  O     -27.012695    -69.573177    -17.241047
  O     -24.767256    -69.680774    -18.147200
  O     -26.159476    -67.750028    -18.605486
  C     -24.127363    -66.026662    -16.781236
  O     -24.211369    -65.906078    -18.164511
  C     -23.949022    -64.609009    -16.234517
  O     -24.918959    -63.765096    -16.766092
  C     -24.008460    -63.206369    -14.117496
  H     -26.499584    -66.243481    -12.249224
  H     -27.596931    -67.603440    -12.561415
  H     -24.520518    -67.139885    -14.221917
  H     -23.167127    -65.165379    -14.339942
  H     -26.263166    -66.325179    -16.559007
  H     -23.246441    -66.618126    -16.505615
  H     -22.948558    -64.263475    -16.526988
  H     -24.864387    -62.638305    -14.475764
  H     -23.094319    -62.680873    -14.400702
  H     -24.813604    -66.560989    -18.526135
  H     -25.050446    -64.042685    -17.663320
  H     -25.853848    -67.890140    -12.432023
  H     -24.054561    -63.267680    -13.029253
29
Coordinates from ORCA-job 3 Relaxed Surface Scan Step 16
  C     -26.559495    -67.256622    -12.808229
  O     -26.482677    -67.076593    -14.180607
  C     -25.308408    -66.582903    -14.664657
  C     -24.053158    -64.575512    -14.712344
  O     -25.208293    -65.242087    -14.296950
  C     -25.280667    -66.743680    -16.177929
  O     -25.160326    -68.110468    -16.448790
  S     -25.968830    -68.831680    -17.676265
  O     -27.259850    -69.163037    -17.150852
  O     -25.117573    -69.941246    -17.983729
  O     -25.993980    -67.790407    -18.697502
  C     -24.071737    -66.010852    -16.771097
  O     -24.119560    -65.912084    -18.156274
  C     -23.944374    -64.586439    -16.231426
  O     -24.929556    -63.774886    -16.784949
  C     -24.090093    -63.179953    -14.120766
  H     -26.486850    -66.309088    -12.269964
  H     -27.522723    -67.714388    -12.592796
  H     -24.457978    -67.135918    -14.237040
  H     -23.171357    -65.105933    -14.323514
  H     -26.208497    -66.335525    -16.575339
  H     -23.185198    -66.577675    -16.461836
  H     -22.949698    -64.212048    -16.507837
  H     -24.961926    -62.646306    -14.493328
  H     -23.192792    -62.620895    -14.393411
  H     -24.686965    -66.595333    -18.524742
  H     -25.038288    -64.060994    -17.682599
  H     -25.769829    -67.926155    -12.449490
  H     -24.149269    -63.239110    -13.033060
29
Coordinates from ORCA-job 3 Relaxed Surface Scan Step 17
  C     -26.521229    -67.289505    -12.809737
  O     -26.455377    -67.106838    -14.182184
  C     -25.292864    -66.592657    -14.671934
  C     -24.065014    -64.568340    -14.711531
  O     -25.209648    -65.252805    -14.296726
  C     -25.269287    -66.744782    -16.186738
  O     -25.136811    -68.109584    -16.465402
  S     -25.992484    -68.817278    -17.666478
  O     -27.356105    -68.820850    -17.222484
  O     -25.358608    -70.096080    -17.768203
  O     -25.752085    -67.929599    -18.798156
  C     -24.069461    -65.994658    -16.777280
  O     -24.122209    -65.883338    -18.160043
  C     -23.959313    -64.571676    -16.230740
  O     -24.956399    -63.770854    -16.778677
  C     -24.120482    -63.175787    -14.114355
  H     -26.464691    -66.341299    -12.270752
  H     -27.474044    -67.766515    -12.589767
  H     -24.431137    -67.135490    -14.253310
  H     -23.175056    -65.087808    -14.326414
  H     -26.204988    -66.346771    -16.577792
  H     -23.175845    -66.552663    -16.470951
  H     -22.970293    -64.183563    -16.508295
  H     -25.000359    -62.652954    -14.483250
  H     -23.231538    -62.603146    -14.386276
  H     -24.606279    -66.623221    -18.540804
  H     -25.065092    -64.056199    -17.676636
  H     -25.716366    -67.943393    -12.455602
  H     -24.176883    -63.240164    -13.026807
29
Coordinates from ORCA-job 3 Relaxed Surface Scan Step 18
  C     -26.490362    -67.302969    -12.790743
  O     -26.442094    -67.121066    -14.164061
  C     -25.288654    -66.597741    -14.666675
  C     -24.071909    -64.568148    -14.712148
  O     -25.207444    -65.259891    -14.285109
  C     -25.282375    -66.744186    -16.182538
  O     -25.154065    -68.110782    -16.456839
  S     -25.971545    -68.808327    -17.688516
  O     -27.356184    -68.522431    -17.439409
  O     -25.573525    -70.177180    -17.575874
  O     -25.443366    -68.120247    -18.860108
  C     -24.096166    -65.983300    -16.786818
  O     -24.177255    -65.854568    -18.166101
  C     -23.988273    -64.563047    -16.232536
  O     -24.999056    -63.765879    -16.760444
  C     -24.125297    -63.178867    -14.107194
  H     -26.436353    -66.353865    -12.253240
  H     -27.436199    -67.788412    -12.559038
  H     -24.419030    -67.138151    -14.261138
  H     -23.174175    -65.085419    -14.342334
  H     -26.226199    -66.354102    -16.561577
  H     -23.192034    -66.535733    -16.501230
  H     -23.006322    -64.166742    -16.523057
  H     -25.012643    -62.658293    -14.461050
  H     -23.242841    -62.600779    -14.388561
  H     -24.551319    -66.650572    -18.559377
  H     -25.123658    -64.049005    -17.657012
  H     -25.675475    -67.949088    -12.445296
  H     -24.166130    -63.249028    -13.019299
29
Coordinates from ORCA-job 3 Relaxed Surface Scan Step 19
  C     -26.466114    -67.297654    -12.749231
  O     -26.443909    -67.118401    -14.123669
  C     -25.296846    -66.599719    -14.648454
  C     -24.074543    -64.575011    -14.717182
  O     -25.201860    -65.263767    -14.264613
  C     -25.322729    -66.743922    -16.164187
  O     -25.210615    -68.114439    -16.427630
  S     -25.904244    -68.798895    -17.738863
  O     -27.241561    -68.273346    -17.773400
  O     -25.770077    -70.195190    -17.463978
  O     -25.073606    -68.321043    -18.837705
  C     -24.154119    -65.978769    -16.798811
  O     -24.283838    -65.833824    -18.172949
  C     -24.031947    -64.562007    -16.239145
  O     -25.057073    -63.761267    -16.733491
  C     -24.105673    -63.188819    -14.103683
  H     -26.397988    -66.347891    -12.214678
  H     -27.409112    -67.779012    -12.497725
  H     -24.423068    -67.145793    -14.260142
  H     -23.169794    -65.098398    -14.373955
  H     -26.273608    -66.356737    -16.526300
  H     -23.239773    -66.531472    -16.549012
  H     -23.058627    -64.163766    -16.554521
  H     -24.999554    -62.662462    -14.431603
  H     -23.228183    -62.613171    -14.404883
  H     -24.509236    -66.677828    -18.579002
  H     -25.216570    -64.044208    -17.624503
  H     -25.647239    -67.946374    -12.418546
  H     -24.118442    -63.264633    -13.015463
29
Coordinates from ORCA-job 3 Relaxed Surface Scan Step 20
  C     -26.437536    -67.290930    -12.696318
  O     -26.447573    -67.114156    -14.071247
  C     -25.308608    -66.604312    -14.624052
  C     -24.079653    -64.584176    -14.726872
  O     -25.195947    -65.269160    -14.242250
  C     -25.373044    -66.747807    -16.138382
  O     -25.289725    -68.121746    -16.395524
  S     -25.825245    -68.769663    -17.795698
  O     -27.012474    -68.023350    -18.118839
  O     -25.995022    -70.148945    -17.463288
  O     -24.730236    -68.499440    -18.719728
  C     -24.217343    -65.988855    -16.803931
  O     -24.386843    -65.842081    -18.174567
  C     -24.080075    -64.572054    -16.249453
  O     -25.119231    -63.771043    -16.714060
  C     -24.089445    -63.197597    -14.113559
  H     -26.348609    -66.340958    -12.165275
  H     -27.377914    -67.764226    -12.420441
  H     -24.430425    -67.156772    -14.255552
  H     -23.167097    -65.110057    -14.409052
  H     -26.326094    -66.350904    -16.481357
  H     -23.296895    -66.542310    -16.582321
  H     -23.116361    -64.174093    -16.593001
  H     -24.990412    -62.668619    -14.416981
  H     -23.218801    -62.624893    -14.439222
  H     -24.468887    -66.705484    -18.588536
  H     -25.311963    -64.055583    -17.597905
  H     -25.616167    -67.945785    -12.384574
  H     -24.072324    -63.272821    -13.025340
29
Coordinates from ORCA-job 3 Relaxed Surface Scan Step 21
  C     -26.418962    -67.291393    -12.669880
  O     -26.450903    -67.108487    -14.043691
  C     -25.317072    -66.604357    -14.613206
  C     -24.083048    -64.589625    -14.735201
  O     -25.192490    -65.270673    -14.230568
  C     -25.405966    -66.750205    -16.126702
  O     -25.329342    -68.126095    -16.372367
  S     -25.751501    -68.771567    -17.814025
  O     -26.716616    -67.848663    -18.359754
  O     -26.218914    -70.076588    -17.467110
  O     -24.502103    -68.732970    -18.555937
  C     -24.264459    -65.987670    -16.813208
  O     -24.463279    -65.826350    -18.180414
  C     -24.117227    -64.572357    -16.257028
  O     -25.168166    -63.770730    -16.693611
  C     -24.072894    -63.205127    -14.117201
  H     -26.313186    -66.344500    -12.136364
  H     -27.358386    -67.758185    -12.379864
  H     -24.436617    -67.161742    -14.258542
  H     -23.166597    -65.121084    -14.438701
  H     -26.363193    -66.353428    -16.456772
  H     -23.338890    -66.541171    -16.619129
  H     -23.162360    -64.172012    -16.621511
  H     -24.977296    -62.670488    -14.399812
  H     -23.206223    -62.635789    -14.458957
  H     -24.518514    -66.676749    -18.609620
  H     -25.384385    -64.051168    -17.573237
  H     -25.597947    -67.954358    -12.375063
  H     -24.033410    -63.284290    -13.029846
29
Coordinates from ORCA-job 3 Relaxed Surface Scan Step 22
  C     -26.476498    -67.241746    -12.667850
  O     -26.529464    -67.034074    -14.037869
  C     -25.383095    -66.574573    -14.623105
  C     -24.058756    -64.633886    -14.757180
  O     -25.194135    -65.254314    -14.232608
  C     -25.503379    -66.733508    -16.137064
  O     -25.414849    -68.122469    -16.321948
  S     -25.423810    -68.864809    -17.772189
  O     -26.182386    -67.950553    -18.616702
  O     -26.066085    -70.112037    -17.499079
  O     -24.034005    -68.941004    -18.139503
  C     -24.409338    -65.946171    -16.883683
  O     -24.734324    -65.692740    -18.214418
  C     -24.165229    -64.561389    -16.271612
  O     -25.195663    -63.693602    -16.619423
  C     -23.924886    -63.276524    -14.094998
  H     -26.305803    -66.311167    -12.122591
  H     -27.433889    -67.660032    -12.362670
  H     -24.522241    -67.172028    -14.290221
  H     -23.171729    -65.238664    -14.518417
  H     -26.483326    -66.368756    -16.443407
  H     -23.486885    -66.530325    -16.816265
  H     -23.211857    -64.193382    -16.672504
  H     -24.800405    -62.670681    -14.318840
  H     -23.035419    -62.756757    -14.456465
  H     -25.196738    -66.440185    -18.598747
  H     -25.453489    -63.930986    -17.500753
  H     -25.687766    -67.954408    -12.403581
  H     -23.844498    -63.397051    -13.013631
29
Coordinates from ORCA-job 3 Relaxed Surface Scan Step 23
  C     -26.345164    -67.382384    -12.728663
  O     -26.370266    -67.169508    -14.098486
  C     -25.253717    -66.608784    -14.646032
  C     -24.104895    -64.543908    -14.732990
  O     -25.195869    -65.273244    -14.254842
  C     -25.317973    -66.747869    -16.161154
  O     -25.132183    -68.107594    -16.433034
  S     -25.761262    -68.870661    -17.738443
  O     -26.206575    -67.762338    -18.576581
  O     -26.829646    -69.673011    -17.223616
  O     -24.635969    -69.588028    -18.261196
  C     -24.209323    -65.924431    -16.830217
  O     -24.386643    -65.779398    -18.202318
  C     -24.114034    -64.510155    -16.254859
  O     -25.180485    -63.737629    -16.703672
  C     -24.157605    -63.167739    -14.098704
  H     -26.274094    -66.444498    -12.173637
  H     -27.272045    -67.884587    -12.458997
  H     -24.352348    -67.126883    -14.285487
  H     -23.174238    -65.043995    -14.426710
  H     -26.296299    -66.403968    -16.490541
  H     -23.267995    -66.447034    -16.623736
  H     -23.164994    -64.075790    -16.596212
  H     -25.077543    -62.664686    -14.389083
  H     -23.308655    -62.561326    -14.420495
  H     -24.958933    -66.470433    -18.545304
  H     -25.343193    -64.003512    -17.599331
  H     -25.506536    -68.025980    -12.441133
  H     -24.131468    -63.258445    -13.011851
29
Coordinates from ORCA-job 3 Relaxed Surface Scan Step 24
  C     -26.279406    -67.448328    -12.756523
  O     -26.303440    -67.231080    -14.125411
  C     -25.207147    -66.627928    -14.664960
  C     -24.128256    -64.520827    -14.728789
  O     -25.196177    -65.292625    -14.265006
  C     -25.260653    -66.748892    -16.181274
  O     -25.045773    -68.093744    -16.499411
  S     -25.870615    -68.848095    -17.695270
  O     -26.037294    -67.787667    -18.683753
  O     -27.107100    -69.271209    -17.107214
  O     -24.964563    -69.887805    -18.077886
  C     -24.154369    -65.903565    -16.823188
  O     -24.293645    -65.776734    -18.199772
  C     -24.112180    -64.486667    -16.251335
  O     -25.192946    -63.748007    -16.722391
  C     -24.244923    -63.147765    -14.096331
  H     -26.253550    -66.510634    -12.197167
  H     -27.185394    -67.991869    -12.496670
  H     -24.288458    -67.116770    -14.305720
  H     -23.183167    -64.983537    -14.408119
  H     -26.241738    -66.410379    -16.510169
  H     -23.207099    -66.401160    -16.582220
  H     -23.170548    -64.023555    -16.575101
  H     -25.179360    -62.681384    -14.401264
  H     -23.415709    -62.508318    -14.405439
  H     -24.826421    -66.495151    -18.553316
  H     -25.332508    -64.021157    -17.619825
  H     -25.415355    -68.055631    -12.464634
  H     -24.232152    -63.237336    -13.009167
