23
Coordinates from ORCA-job 5 Relaxed Surface Scan Step 1
  C      -4.391737      0.352616      0.519596
  H      -3.940420     -0.633875      0.405052
  H      -4.585720      0.750612     -0.479874
  H      -5.355925      0.209597      1.010714
  C      -3.513155      1.302444      1.330577
  H      -4.067789      2.230690      1.487401
  H      -3.341067      0.878698      2.323800
  C      -2.169880      1.650516      0.680083
  H      -2.340321      2.066782     -0.315372
  H      -1.687087      2.448692      1.248183
  C      -1.188760      0.468214      0.566282
  H      -0.429856      0.684231     -0.184810
  H      -1.700298     -0.444210      0.269764
  C      -0.494470      0.196064      1.876663
  O      -0.778572     -0.670397      2.633107
  O       0.471488      1.069040      2.113867
  C       1.189124      0.966975      3.332021
  H       0.493126      1.057048      4.165248
  H       1.645595     -0.019872      3.395279
  C       2.228948      2.062041      3.356368
  H       2.802116      2.010554      4.283288
  H       2.918635      1.959552      2.517992
  H       1.759352      3.044374      3.295373
23
Coordinates from ORCA-job 5 Relaxed Surface Scan Step 2
  C      -4.270086      0.314037      0.821147
  H      -3.792770     -0.662771      0.906566
  H      -4.539867      0.469306     -0.226920
  H      -5.196002      0.272403      1.397556
  C      -3.370853      1.436199      1.334208
  H      -3.949089      2.363118      1.360336
  H      -3.093198      1.226560      2.371327
  C      -2.110310      1.691582      0.500877
  H      -2.396444      1.998246     -0.508321
  H      -1.564320      2.536834      0.924720
  C      -1.150666      0.496463      0.387849
  H      -0.361721      0.730450     -0.327414
  H      -1.665001     -0.394590      0.036016
  C      -0.502107      0.156791      1.705997
  O      -0.761690     -0.789804      2.369288
  O       0.394838      1.061645      2.063750
  C       1.068832      0.892558      3.299314
  H       0.335913      0.861219      4.104629
  H       1.587263     -0.065322      3.294329
  C       2.031527      2.043756      3.469306
  H       2.569271      1.942932      4.413239
  H       2.759580      2.062661      2.657671
  H       1.500224      2.996113      3.475133
23
Coordinates from ORCA-job 5 Relaxed Surface Scan Step 3
  C      -4.159542      0.384605      1.082460
  H      -3.673677     -0.585062      1.198980
  H      -4.569706      0.438204      0.070536
  H      -4.998103      0.413949      1.780535
  C      -3.195603      1.537526      1.350207
  H      -3.751495      2.478989      1.345225
  H      -2.788711      1.440668      2.361644
  C      -2.047710      1.668016      0.344828
  H      -2.459963      1.854728     -0.650573
  H      -1.450088      2.544331      0.601065
  C      -1.118044      0.451377      0.243190
  H      -0.317156      0.676621     -0.464066
  H      -1.645146     -0.428095     -0.119542
  C      -0.472394      0.073893      1.552592
  O      -0.625768     -0.959798      2.110473
  O       0.298751      1.039788      2.024767
  C       0.968246      0.828473      3.256471
  H       0.232174      0.618211      4.031352
  H       1.607347     -0.049159      3.168393
  C       1.769445      2.068873      3.573182
  H       2.300302      1.937947      4.517312
  H       2.501943      2.267147      2.790044
  H       1.118224      2.939159      3.661529
23
Coordinates from ORCA-job 5 Relaxed Surface Scan Step 4
  C      -4.068401      0.436887      1.269614
  H      -3.566921     -0.525103      1.387753
  H      -4.593105      0.427656      0.310762
  H      -4.820769      0.511772      2.056908
  C      -3.082891      1.599480      1.348327
  H      -3.628042      2.548126      1.317662
  H      -2.575998      1.583969      2.317774
  C      -2.042497      1.635070      0.227033
  H      -2.562850      1.686537     -0.733599
  H      -1.458283      2.551548      0.322819
  C      -1.079567      0.441296      0.145536
  H      -0.265405      0.708516     -0.532764
  H      -1.571122     -0.445443     -0.248610
  C      -0.448633      0.041049      1.454289
  O      -0.543199     -1.033272      1.945091
  O       0.241730      1.027558      2.001912
  C       0.894792      0.790127      3.237941
  H       0.156493      0.485591      3.978650
  H       1.594706     -0.035742      3.117670
  C       1.600784      2.061059      3.646694
  H       2.116999      1.911035      4.596086
  H       2.336188      2.353836      2.896597
  H       0.889317      2.878834      3.766457
23
Coordinates from ORCA-job 5 Relaxed Surface Scan Step 5
  C      -3.974999      0.491534      1.443437
  H      -3.448273     -0.454444      1.583034
  H      -4.595962      0.399312      0.548777
  H      -4.642851      0.623438      2.296811
  C      -3.005810      1.664145      1.322324
  H      -3.563960      2.603181      1.233599
  H      -2.419586      1.755563      2.240265
  C      -2.067426      1.593282      0.116776
  H      -2.678635      1.486699     -0.783399
  H      -1.540762      2.545343      0.038564
  C      -1.037573      0.449462      0.066231
  H      -0.211394      0.780178     -0.568842
  H      -1.463220     -0.450283     -0.372185
  C      -0.420675      0.024770      1.373376
  O      -0.454007     -1.081815      1.796706
  O       0.194622      1.018622      1.992287
  C       0.838136      0.749789      3.227048
  H       0.105726      0.361844      3.933897
  H       1.587263     -0.026305      3.076103
  C       1.461191      2.033938      3.720588
  H       1.969500      1.859637      4.670096
  H       2.190560      2.411020      3.002948
  H       0.701459      2.801476      3.872162
23
Coordinates from ORCA-job 5 Relaxed Surface Scan Step 6
  C      -3.841064      0.538271      1.630285
  H      -3.261828     -0.369809      1.807527
  H      -4.551014      0.326749      0.826846
  H      -4.417420      0.742484      2.534708
  C      -2.947097      1.723150      1.273214
  H      -3.562238      2.616970      1.115827
  H      -2.287731      1.959697      2.110599
  C      -2.122686      1.537364     -0.002614
  H      -2.810066      1.246701     -0.799955
  H      -1.710786      2.508761     -0.277697
  C      -0.977700      0.494040     -0.021276
  H      -0.142286      0.931565     -0.572129
  H      -1.284705     -0.411968     -0.537738
  C      -0.407897      0.034528      1.296157
  O      -0.425641     -1.089892      1.671389
  O       0.157751      1.015520      1.979704
  C       0.759252      0.709404      3.227012
  H       0.007255      0.284736      3.891004
  H       1.525246     -0.049778      3.075468
  C       1.343736      1.982564      3.791214
  H       1.821066      1.778862      4.750889
  H       2.091830      2.397689      3.115064
  H       0.567347      2.732778      3.945105
23
Coordinates from ORCA-job 5 Relaxed Surface Scan Step 7
  C      -3.662069      0.588982      1.826992
  H      -3.015223     -0.259917      2.049004
  H      -4.450709      0.233882      1.159088
  H      -4.136559      0.897566      2.760786
  C      -2.903981      1.755955      1.195244
  H      -3.614525      2.563191      0.996598
  H      -2.179429      2.163688      1.902016
  C      -2.212488      1.427975     -0.134502
  H      -2.929499      0.898298     -0.764794
  H      -2.003540      2.367837     -0.646215
  C      -0.891142      0.603282     -0.115074
  H      -0.083646      1.222055     -0.505826
  H      -0.984418     -0.267009     -0.760133
  C      -0.413729      0.081714      1.218261
  O      -0.491313     -1.047439      1.569707
  O       0.140461      1.026894      1.960358
  C       0.649034      0.671793      3.235490
  H      -0.160796      0.270876      3.844046
  H       1.388059     -0.119040      3.115985
  C       1.253758      1.906870      3.859995
  H       1.661481      1.664725      4.842571
  H       2.059920      2.299129      3.239187
  H       0.503681      2.689081      3.981820
23
Coordinates from ORCA-job 5 Relaxed Surface Scan Step 8
  C      -4.863986      0.750020      0.641938
  H      -4.949784     -0.332207      0.763231
  H      -5.077952      0.984904     -0.403857
  H      -5.642103      1.213485      1.251513
  C      -3.479149      1.240909      1.050579
  H      -3.437305      2.330734      0.952419
  H      -3.314389      1.017487      2.106178
  C      -2.356587      0.617796      0.221208
  H      -2.384967     -0.468727      0.326159
  H      -2.529059      0.834139     -0.836969
  C      -0.961710      1.117806      0.581816
  H      -0.906021      2.207918      0.561015
  H      -0.226644      0.772527     -0.150444
  C      -0.456438      0.652242      1.925680
  O      -0.960800     -0.182860      2.597624
  O       0.656555      1.277834      2.267427
  C       1.281433      0.924686      3.490298
  H       0.581018      1.086978      4.308535
  H       1.522398     -0.137499      3.474343
  C       2.521346      1.773106      3.644096
  H       3.028099      1.525681      4.578082
  H       3.213661      1.600364      2.819454
  H       2.265710      2.833064      3.660278
23
Coordinates from ORCA-job 5 Relaxed Surface Scan Step 9
  C      -4.863947      0.766302      0.686209
  H      -4.934850     -0.282214      0.983783
  H      -5.095742      0.825232     -0.380233
  H      -5.637870      1.317046      1.224217
  C      -3.478401      1.329608      0.983442
  H      -3.452864      2.390006      0.710521
  H      -3.291992      1.278580      2.059610
  C      -2.361911      0.599572      0.238551
  H      -2.414538     -0.467657      0.458434
  H      -2.520542      0.710705     -0.837398
  C      -0.963270      1.106779      0.579239
  H      -0.922889      2.196755      0.612265
  H      -0.241934      0.804019     -0.184973
  C      -0.413322      0.582293      1.883884
  O      -0.834788     -0.350102      2.480254
  O       0.642131      1.273345      2.278334
  C       1.308614      0.870192      3.463023
  H       0.604568      0.892766      4.293793
  H       1.645727     -0.159543      3.350270
  C       2.467248      1.811683      3.691414
  H       3.003800      1.528566      4.598219
  H       3.164213      1.778628      2.853350
  H       2.115886      2.837828      3.804394
23
Coordinates from ORCA-job 5 Relaxed Surface Scan Step 10
  C      -4.875565      0.806511      0.702512
  H      -4.955790     -0.193667      1.133966
  H      -5.105062      0.727334     -0.363053
  H      -5.645457      1.429573      1.161628
  C      -3.485586      1.392045      0.925912
  H      -3.451266      2.408912      0.520283
  H      -3.298435      1.478943      2.000698
  C      -2.374407      0.566944      0.278546
  H      -2.448642     -0.469683      0.609016
  H      -2.521049      0.566994     -0.804386
  C      -0.970575      1.086147      0.590806
  H      -0.946638      2.173757      0.669742
  H      -0.270882      0.826326     -0.208626
  C      -0.360369      0.513858      1.848234
  O      -0.681690     -0.502874      2.363641
  O       0.630074      1.266478      2.294632
  C       1.351429      0.826689      3.433293
  H       0.662182      0.708037      4.268253
  H       1.783157     -0.151828      3.226312
  C       2.418638      1.851736      3.735465
  H       2.994721      1.542877      4.609004
  H       3.101571      1.960042      2.892218
  H       1.972968      2.825237      3.942505
23
Coordinates from ORCA-job 5 Relaxed Surface Scan Step 11
  C      -4.902227      0.837698      0.674612
  H      -5.003070     -0.109527      1.209069
  H      -5.104659      0.644789     -0.381784
  H      -5.677933      1.511837      1.042690
  C      -3.513278      1.435063      0.870083
  H      -3.458869      2.401783      0.358135
  H      -3.352243      1.638716      1.933569
  C      -2.393141      0.537515      0.345787
  H      -2.480397     -0.455923      0.787138
  H      -2.519079      0.414222     -0.732374
  C      -0.991186      1.086038      0.632430
  H      -0.994998      2.168535      0.762588
  H      -0.314365      0.884497     -0.202630
  C      -0.312147      0.472267      1.833912
  O      -0.543063     -0.602699      2.274353
  O       0.629188      1.262598      2.319147
  C       1.410556      0.792884      3.405110
  H       0.753723      0.558065      4.241545
  H       1.908476     -0.130973      3.113218
  C       2.405702      1.870195      3.765693
  H       3.025527      1.539927      4.600572
  H       3.056678      2.094937      2.920212
  H       1.894131      2.787942      4.057528
23
Coordinates from ORCA-job 5 Relaxed Surface Scan Step 12
  C      -4.971766      0.733661      0.393936
  H      -5.101688     -0.196769      0.951325
  H      -4.990660      0.486877     -0.670411
  H      -5.834543      1.369361      0.602019
  C      -3.669530      1.427414      0.777148
  H      -3.585381      2.371376      0.228413
  H      -3.698024      1.692589      1.838789
  C      -2.430758      0.573892      0.505915
  H      -2.518146     -0.372438      1.039557
  H      -2.397882      0.325557     -0.557549
  C      -1.118151      1.257699      0.912497
  H      -1.279943      2.287757      1.236976
  H      -0.420173      1.330130      0.075609
  C      -0.358737      0.569844      2.022953
  O      -0.631792     -0.474307      2.509539
  O       0.691900      1.283177      2.391730
  C       1.532423      0.769921      3.411504
  H       0.943688      0.614287      4.314660
  H       1.916769     -0.201305      3.102278
  C       2.648577      1.761207      3.640655
  H       3.316376      1.395785      4.422232
  H       3.230314      1.906825      2.729841
  H       2.250453      2.727848      3.950988
23
Coordinates from ORCA-job 5 Relaxed Surface Scan Step 13
  C      -4.929456      0.614129      0.044825
  H      -5.099627     -0.331065      0.565459
  H      -4.700670      0.380785     -0.997831
  H      -5.865343      1.175852      0.061079
  C      -3.799686      1.404445      0.695268
  H      -3.674096      2.357338      0.171725
  H      -4.080847      1.661184      1.721472
  C      -2.473964      0.643895      0.725003
  H      -2.595871     -0.267075      1.309633
  H      -2.215695      0.322767     -0.287800
  C      -1.312060      1.458026      1.306105
  H      -1.678309      2.323395      1.865593
  H      -0.668311      1.871750      0.530299
  C      -0.441935      0.703447      2.284048
  O      -0.756569     -0.277363      2.868894
  O       0.723713      1.301909      2.455828
  C       1.632154      0.752606      3.395688
  H       1.158328      0.725223      4.376220
  H       1.857901     -0.275189      3.114705
  C       2.874101      1.611959      3.402982
  H       3.596342      1.216195      4.118574
  H       3.339151      1.628820      2.416764
  H       2.634071      2.637354      3.686070
23
Coordinates from ORCA-job 5 Relaxed Surface Scan Step 14
  C      -4.858054      0.594785     -0.122263
  H      -5.104736     -0.320721      0.420350
  H      -4.493329      0.305147     -1.110601
  H      -5.782752      1.157867     -0.261986
  C      -3.819207      1.417925      0.631425
  H      -3.615471      2.340101      0.078748
  H      -4.235650      1.733138      1.593368
  C      -2.519041      0.655582      0.885811
  H      -2.721950     -0.206271      1.520144
  H      -2.136635      0.253867     -0.057272
  C      -1.432565      1.509058      1.541745
  H      -1.876601      2.253620      2.208497
  H      -0.856926      2.074129      0.809532
  C      -0.478252      0.727045      2.413565
  O      -0.751508     -0.267727      2.996482
  O       0.702481      1.312817      2.501908
  C       1.681447      0.732394      3.347665
  H       1.290441      0.680788      4.363103
  H       1.874384     -0.288595      3.021193
  C       2.926734      1.583810      3.274594
  H       3.702747      1.164120      3.916444
  H       3.308188      1.625101      2.253818
  H       2.719578      2.602408      3.604332
23
Coordinates from ORCA-job 5 Relaxed Surface Scan Step 15
  C      -4.860969      0.622385     -0.134442
  H      -5.206937     -0.194878      0.502561
  H      -4.480542      0.182149     -1.059155
  H      -5.727934      1.234237     -0.390695
  C      -3.788752      1.450122      0.566116
  H      -3.486447      2.277043     -0.083755
  H      -4.217140      1.914287      1.460185
  C      -2.566500      0.628115      0.971447
  H      -2.862920     -0.150816      1.673496
  H      -2.165658      0.107226      0.096706
  C      -1.459926      1.468586      1.601043
  H      -1.876659      2.188747      2.311445
  H      -0.926016      2.061664      0.858275
  C      -0.452817      0.665285      2.388433
  O      -0.654782     -0.398187      2.869511
  O       0.691299      1.312413      2.524207
  C       1.717969      0.712572      3.296454
  H       1.347258      0.532091      4.304754
  H       1.969829     -0.255096      2.864591
  C       2.905933      1.645198      3.300226
  H       3.716843      1.212638      3.888139
  H       3.267902      1.815397      2.285729
  H       2.640292      2.609207      3.735332
23
Coordinates from ORCA-job 5 Relaxed Surface Scan Step 16
  C      -4.892998      0.651654     -0.091696
  H      -5.324404     -0.020873      0.653260
  H      -4.550756      0.040063     -0.929758
  H      -5.692181      1.298911     -0.457728
  C      -3.748611      1.468127      0.499550
  H      -3.363997      2.155746     -0.260147
  H      -4.133589      2.098674      1.307401
  C      -2.609994      0.603915      1.037742
  H      -2.985008     -0.058188      1.819321
  H      -2.237222     -0.052038      0.246213
  C      -1.453526      1.425578      1.591883
  H      -1.807672      2.160547      2.320635
  H      -0.957457      2.004199      0.810590
  C      -0.403580      0.605002      2.298972
  O      -0.523333     -0.526844      2.625907
  O       0.684330      1.315793      2.542734
  C       1.752221      0.696741      3.240146
  H       1.392741      0.349195      4.207971
  H       2.082600     -0.178661      2.682541
  C       2.861899      1.710042      3.391387
  H       3.702317      1.264792      3.925972
  H       3.213326      2.047902      2.415918
  H       2.518221      2.580109      3.951791
23
Coordinates from ORCA-job 5 Relaxed Surface Scan Step 17
  C      -4.939438      0.670212     -0.003133
  H      -5.419570      0.189598      0.852389
  H      -4.673796     -0.113836     -0.715955
  H      -5.679381      1.315870     -0.479823
  C      -3.710290      1.463658      0.427500
  H      -3.278309      1.964074     -0.445130
  H      -4.015368      2.261297      1.112399
  C      -2.641901      0.601170      1.095831
  H      -3.066135      0.093142      1.965258
  H      -2.324673     -0.190873      0.414079
  C      -1.424097      1.404631      1.530700
  H      -1.693779      2.183700      2.247977
  H      -0.971211      1.929888      0.685532
  C      -0.337351      0.571634      2.162361
  O      -0.361759     -0.605202      2.290044
  O       0.675281      1.321457      2.563727
  C       1.785661      0.685099      3.173498
  H       1.445952      0.140037      4.053310
  H       2.204116     -0.044084      2.480825
  C       2.794359      1.749414      3.535214
  H       3.664707      1.292123      4.008198
  H       3.126825      2.286074      2.646027
  H       2.363484      2.471303      4.229773
23
Coordinates from ORCA-job 5 Relaxed Surface Scan Step 18
  C      -4.976724      0.669693      0.097082
  H      -5.477538      0.413263      1.033561
  H      -4.787445     -0.261461     -0.441893
  H      -5.671937      1.263675     -0.499122
  C      -3.680317      1.430427      0.353913
  H      -3.228108      1.709514     -0.603613
  H      -3.905874      2.369505      0.869318
  C      -2.663195      0.630645      1.164366
  H      -3.114053      0.306349      2.107599
  H      -2.396596     -0.280390      0.626899
  C      -1.395381      1.421748      1.462943
  H      -1.582408      2.239228      2.161276
  H      -1.006797      1.889638      0.552701
  C      -0.266875      0.581489      2.007316
  O      -0.187312     -0.596417      1.913542
  O       0.662721      1.324521      2.582328
  C       1.817364      0.681924      3.096154
  H       1.514987     -0.051358      3.842625
  H       2.313057      0.140887      2.291022
  C       2.716592      1.740238      3.689793
  H       3.617868      1.278121      4.095339
  H       3.012099      2.466873      2.932258
  H       2.209198      2.272273      4.495195
23
Coordinates from ORCA-job 5 Relaxed Surface Scan Step 19
  C      -4.978140      0.637949      0.127197
  H      -5.520800      0.595344      1.074544
  H      -4.824462     -0.389032     -0.212160
  H      -5.620937      1.136120     -0.600967
  C      -3.649908      1.369887      0.283738
  H      -3.152230      1.431978     -0.690116
  H      -3.837376      2.401151      0.599959
  C      -2.698625      0.690859      1.265854
  H      -3.203095      0.542028      2.226553
  H      -2.441608     -0.300751      0.892674
  C      -1.412965      1.485008      1.492462
  H      -1.549173      2.286431      2.219353
  H      -1.093686      1.967864      0.563070
  C      -0.237577      0.638253      1.916873
  O      -0.088640     -0.502486      1.634336
  O       0.650157      1.332822      2.605941
  C       1.845048      0.685663      3.010940
  H       1.592433     -0.176211      3.627062
  H       2.365907      0.313829      2.129409
  C       2.683771      1.685397      3.771257
  H       3.614101      1.218562      4.098165
  H       2.929623      2.542166      3.143014
  H       2.151509      2.047554      4.651445
23
Coordinates from ORCA-job 5 Relaxed Surface Scan Step 20
  C      -4.890935      0.590972     -0.027307
  H      -5.569075      0.671513      0.825698
  H      -4.720648     -0.471635     -0.215117
  H      -5.403190      1.004629     -0.898059
  C      -3.578866      1.319828      0.239236
  H      -2.938193      1.250893     -0.646272
  H      -3.778924      2.385228      0.393205
  C      -2.810487      0.758595      1.434580
  H      -3.458579      0.759305      2.316115
  H      -2.556683     -0.282268      1.234829
  C      -1.526680      1.535415      1.751343
  H      -1.649566      2.212777      2.596678
  H      -1.235777      2.168464      0.907163
  C      -0.317110      0.670681      2.015883
  O      -0.186861     -0.452350      1.663224
  O       0.625614      1.338731      2.657506
  C       1.856178      0.684903      2.919637
  H       1.665420     -0.210913      3.509033
  H       2.298692      0.365920      1.976679
  C       2.752748      1.652923      3.654499
  H       3.711768      1.180338      3.871956
  H       2.935600      2.544289      3.053489
  H       2.298880      1.962149      4.596607
23
Coordinates from ORCA-job 5 Relaxed Surface Scan Step 21
  C      -4.451227      0.613418     -0.401698
  H      -5.381728      0.688428      0.166394
  H      -4.224528     -0.447797     -0.526284
  H      -4.633490      1.033501     -1.392681
  C      -3.313096      1.340111      0.305670
  H      -2.404883      1.272974     -0.301092
  H      -3.548666      2.407284      0.371184
  C      -3.034660      0.802405      1.709830
  H      -3.922920      0.948062      2.327969
  H      -2.868926     -0.274292      1.669815
  C      -1.826294      1.463649      2.383175
  H      -2.034502      1.707619      3.427313
  H      -1.565001      2.413081      1.914863
  C      -0.582724      0.606113      2.421721
  O      -0.554687     -0.571274      2.295221
  O       0.495876      1.330110      2.665518
  C       1.740183      0.663537      2.798263
  H       1.671561     -0.062827      3.607198
  H       1.948772      0.111850      1.882608
  C       2.800526      1.703065      3.073995
  H       3.773860      1.222254      3.182468
  H       2.859944      2.421985      2.256188
  H       2.579934      2.247132      3.992966
23
Coordinates from ORCA-job 5 Relaxed Surface Scan Step 22
  C      -4.306550      0.579955     -0.427190
  H      -5.280888      0.776459      0.027144
  H      -4.156193     -0.501787     -0.434106
  H      -4.351283      0.916471     -1.464751
  C      -3.190298      1.285433      0.334737
  H      -2.233276      1.090070     -0.158163
  H      -3.339407      2.368517      0.277713
  C      -3.106807      0.871441      1.804397
  H      -4.022970      1.175838      2.315552
  H      -3.057892     -0.214973      1.883977
  C      -1.900788      1.469476      2.528497
  H      -2.091039      1.567426      3.599849
  H      -1.673226      2.477266      2.179551
  C      -0.647451      0.632385      2.421922
  O      -0.619955     -0.527223      2.180249
  O       0.437551      1.340947      2.679623
  C       1.691027      0.678257      2.684259
  H       1.668242     -0.123507      3.421364
  H       1.855644      0.219826      1.710070
  C       2.757929      1.697757      3.005661
  H       3.738380      1.219346      3.017760
  H       2.771064      2.492881      2.259471
  H       2.581509      2.148123      3.983020
23
Coordinates from ORCA-job 5 Relaxed Surface Scan Step 23
  C      -4.345494      0.550561     -0.381825
  H      -5.283578      0.936853      0.024733
  H      -4.353012     -0.534862     -0.260301
  H      -4.335736      0.764461     -1.452272
  C      -3.141058      1.173147      0.315998
  H      -2.223435      0.782831     -0.130632
  H      -3.136366      2.253306      0.136280
  C      -3.121861      0.917113      1.822556
  H      -4.017003      1.354038      2.273095
  H      -3.168328     -0.156245      2.013678
  C      -1.895345      1.490439      2.525688
  H      -2.045977      1.524382      3.607924
  H      -1.698374      2.520737      2.224501
  C      -0.633179      0.689670      2.312484
  O      -0.586667     -0.413131      1.882362
  O       0.438620      1.358597      2.700035
  C       1.701787      0.720988      2.609453
  H       1.682966     -0.194296      3.199799
  H       1.884205      0.436444      1.574000
  C       2.749597      1.685034      3.113106
  H       3.736928      1.224201      3.057150
  H       2.758987      2.595260      2.512631
  H       2.555649      1.960858      4.150158
23
Coordinates from ORCA-job 5 Relaxed Surface Scan Step 24
  C      -4.431734      0.571463     -0.336572
  H      -5.270997      1.177115      0.014732
  H      -4.647112     -0.470026     -0.086508
  H      -4.399503      0.649597     -1.424941
  C      -3.115725      1.025771      0.286649
  H      -2.300612      0.420423     -0.111628
  H      -2.915154      2.061779     -0.007284
  C      -3.117767      0.926145      1.811841
  H      -3.975975      1.480718      2.202920
  H      -3.257363     -0.116451      2.106703
  C      -1.872042      1.479292      2.495922
  H      -1.995261      1.455518      3.582576
  H      -1.706886      2.528135      2.240587
  C      -0.591227      0.734866      2.209123
  O      -0.503447     -0.290900      1.623542
  O       0.453453      1.364412      2.719325
  C       1.735881      0.779714      2.564878
  H       1.731767     -0.213284      3.012682
  H       1.946410      0.656931      1.503251
  C       2.745630      1.684599      3.230079
  H       3.746694      1.262584      3.129514
  H       2.740434      2.673947      2.771478
  H       2.523863      1.798038      4.291733
