30
Coordinates from ORCA-job 8 Relaxed Surface Scan Step 1
  C      -4.343216     -2.375582      0.811259
  C      -4.125401     -0.864463      0.926458
  C      -4.789256     -0.353188      2.205429
  C      -4.737371     -2.401806      3.292513
  C      -4.051945     -3.098668      2.131654
  H      -4.522443      0.690665      2.347381
  H      -3.047550     -0.684169      0.985173
  H      -5.374513     -2.555836      0.503777
  H      -4.406143     -2.858028      4.221994
  H      -5.824365     -2.530591      3.211817
  H      -4.442295     -4.119751      2.050736
  H      -5.875348     -0.402113      2.063489
  O      -4.405397     -1.056227      3.338196
  O      -2.686692     -3.117737      2.395421
  H      -2.231231     -3.470917      1.647647
  O      -3.473351     -3.026763     -0.127970
  O      -4.716213     -0.135147     -0.096220
  H      -4.632268     -0.581261     -0.928216
  C      -3.606062     -2.932695     -1.438183
  O      -4.323826     -2.149419     -1.968495
  C      -2.751310     -3.929690     -2.175263
  H      -3.074167     -4.927263     -1.865432
  H      -2.974955     -3.815747     -3.234305
  C      -1.250914     -3.760971     -1.915465
  H      -1.049498     -3.886640     -0.850475
  H      -0.956116     -2.739149     -2.168598
  C      -0.408690     -4.747197     -2.716746
  H       0.653495     -4.604882     -2.513192
  H      -0.660695     -5.779706     -2.464596
  H      -0.562020     -4.619105     -3.790246
30
Coordinates from ORCA-job 8 Relaxed Surface Scan Step 2
  C      -4.346314     -2.373653      0.801412
  C      -4.210916     -0.850118      0.906392
  C      -4.845569     -0.371315      2.213404
  C      -4.660194     -2.412922      3.295812
  C      -3.978086     -3.076275      2.114267
  H      -4.621711      0.683875      2.345014
  H      -3.143992     -0.605385      0.912745
  H      -5.375591     -2.608555      0.525047
  H      -4.279406     -2.852405      4.214314
  H      -5.742017     -2.592181      3.248737
  H      -4.316343     -4.116618      2.046486
  H      -5.932699     -0.469823      2.111888
  O      -4.389373     -1.053630      3.331208
  O      -2.606123     -3.022257      2.335629
  H      -2.156139     -3.355672      1.575730
  O      -3.473652     -2.995886     -0.157045
  O      -4.898549     -0.162089     -0.082451
  H      -4.736161     -0.546425     -0.933711
  C      -3.569987     -2.852229     -1.465245
  O      -4.248180     -2.030773     -1.989552
  C      -2.735347     -3.855265     -2.218421
  H      -3.163355     -4.841829     -2.017875
  H      -2.869920     -3.643048     -3.277436
  C      -1.250872     -3.844692     -1.843449
  H      -1.141537     -4.085446     -0.784990
  H      -0.852923     -2.835017     -1.975562
  C      -0.435227     -4.826191     -2.677489
  H       0.616697     -4.799082     -2.389922
  H      -0.790626     -5.850412     -2.543805
  H      -0.495639     -4.588731     -3.741590
30
Coordinates from ORCA-job 8 Relaxed Surface Scan Step 3
  C      -4.323246     -2.364978      0.789380
  C      -4.317461     -0.833780      0.883840
  C      -4.943089     -0.406143      2.213068
  C      -4.538685     -2.415473      3.295077
  C      -3.846686     -3.023910      2.090263
  H      -4.809616      0.665600      2.332515
  H      -3.277749     -0.493117      0.849626
  H      -5.339293     -2.686899      0.554567
  H      -4.086018     -2.813721      4.199650
  H      -5.601542     -2.689333      3.290259
  H      -4.094874     -4.090194      2.038763
  H      -6.020141     -0.601592      2.152923
  O      -4.387159     -1.037551      3.315362
  O      -2.477240     -2.848638      2.258454
  H      -2.028711     -3.141247      1.481019
  O      -3.440127     -2.929287     -0.195975
  O      -5.102960     -0.216055     -0.077158
  H      -4.894122     -0.549946     -0.939715
  C      -3.531671     -2.750886     -1.498905
  O      -4.222269     -1.930069     -2.007744
  C      -2.691946     -3.725693     -2.285149
  H      -3.270847     -4.654535     -2.327751
  H      -2.639286     -3.338730     -3.301503
  C      -1.297559     -4.003532     -1.723954
  H      -1.387752     -4.443865     -0.730025
  H      -0.761367     -3.058782     -1.599333
  C      -0.487405     -4.932600     -2.621542
  H       0.499949     -5.119327     -2.197036
  H      -0.984511     -5.897529     -2.744251
  H      -0.346370     -4.502236     -3.615183
30
Coordinates from ORCA-job 8 Relaxed Surface Scan Step 4
  C      -4.325957     -2.374874      0.788061
  C      -4.387302     -0.842895      0.867506
  C      -4.990909     -0.429281      2.211521
  C      -4.475965     -2.409254      3.299371
  C      -3.791116     -3.001235      2.082590
  H      -4.897954      0.648115      2.317469
  H      -3.367581     -0.451938      0.795075
  H      -5.333648     -2.740428      0.583196
  H      -3.984496     -2.780143      4.195282
  H      -5.526780     -2.725197      3.324832
  H      -3.997646     -4.076939      2.047141
  H      -6.060373     -0.668645      2.183784
  O      -4.379423     -1.026328      3.303183
  O      -2.425888     -2.769978      2.213971
  H      -1.985100     -3.063096      1.432317
  O      -3.448847     -2.924536     -0.212326
  O      -5.235383     -0.277759     -0.071961
  H      -4.972749     -0.542301     -0.943859
  C      -3.482805     -2.680969     -1.506779
  O      -4.117636     -1.810464     -2.005356
  C      -2.652428     -3.651981     -2.308710
  H      -3.288151     -4.530879     -2.462622
  H      -2.505715     -3.196773     -3.287011
  C      -1.321619     -4.069977     -1.684999
  H      -1.508027     -4.568724     -0.732921
  H      -0.730106     -3.178012     -1.460252
  C      -0.520095     -4.993023     -2.596552
  H       0.422520     -5.279318     -2.128020
  H      -1.072983     -5.908815     -2.817769
  H      -0.285590     -4.508397     -3.546621
30
Coordinates from ORCA-job 8 Relaxed Surface Scan Step 5
  C      -4.325932     -2.388621      0.791285
  C      -4.456540     -0.859656      0.850902
  C      -5.050279     -0.458268      2.202870
  C      -4.413667     -2.394500      3.305289
  C      -3.731639     -2.971616      2.079847
  H      -5.008552      0.623757      2.292426
  H      -3.460831     -0.417757      0.750542
  H      -5.322962     -2.798425      0.621747
  H      -3.882873     -2.727588      4.193564
  H      -5.446914     -2.760354      3.361648
  H      -3.889796     -4.055855      2.064469
  H      -6.106938     -0.750430      2.203793
  O      -4.384885     -1.008611      3.287616
  O      -2.375333     -2.677206      2.173242
  H      -1.938057     -2.984027      1.394931
  O      -3.461053     -2.928456     -0.226167
  O      -5.353299     -0.354074     -0.077118
  H      -5.040342     -0.544707     -0.951577
  C      -3.423851     -2.609454     -1.503283
  O      -3.991050     -1.682551     -1.981461
  C      -2.602461     -3.572302     -2.325379
  H      -3.286245     -4.382689     -2.601387
  H      -2.352474     -3.050997     -3.248355
  C      -1.354855     -4.141766     -1.653065
  H      -1.644597     -4.694004     -0.758144
  H      -0.715329     -3.319299     -1.319944
  C      -0.561562     -5.053732     -2.582910
  H       0.322298     -5.448224     -2.079751
  H      -1.163639     -5.903669     -2.912102
  H      -0.226098     -4.518969     -3.473983
30
Coordinates from ORCA-job 8 Relaxed Surface Scan Step 6
  C      -4.322248     -2.405103      0.799114
  C      -4.527001     -0.884063      0.834754
  C      -5.128132     -0.497738      2.187258
  C      -4.353558     -2.371240      3.312414
  C      -3.666853     -2.931450      2.081420
  H      -5.152642      0.586152      2.258452
  H      -3.559143     -0.389318      0.720463
  H      -5.304593     -2.861951      0.670642
  H      -3.782963     -2.653466      4.193584
  H      -5.360576     -2.798776      3.400259
  H      -3.765243     -4.022684      2.089298
  H      -6.164466     -0.855105      2.211033
  O      -4.411844     -0.986676      3.269527
  O      -2.326548     -2.561847      2.135990
  H      -1.884011     -2.891777      1.370325
  O      -3.476220     -2.939233     -0.238056
  O      -5.455716     -0.444921     -0.095925
  H      -5.090006     -0.550598     -0.963940
  C      -3.346927     -2.533642     -1.483592
  O      -3.825711     -1.541079     -1.925389
  C      -2.539863     -3.487765     -2.331052
  H      -3.261785     -4.208469     -2.731104
  H      -2.180609     -2.910098     -3.181757
  C      -1.395676     -4.218324     -1.632214
  H      -1.792789     -4.811693     -0.807770
  H      -0.714390     -3.485182     -1.190290
  C      -0.616451     -5.119059     -2.584727
  H       0.194655     -5.628440     -2.062509
  H      -1.261752     -5.884022     -3.022582
  H      -0.176692     -4.546482     -3.404083
30
Coordinates from ORCA-job 8 Relaxed Surface Scan Step 7
  C      -4.303168     -2.423293      0.814953
  C      -4.599536     -0.918692      0.818826
  C      -5.236470     -0.556085      2.160212
  C      -4.299032     -2.334467      3.322650
  C      -3.588247     -2.870269      2.093473
  H      -5.350523      0.523286      2.209688
  H      -3.667278     -0.362096      0.709672
  H      -5.260787     -2.938298      0.730207
  H      -3.693037     -2.544416      4.200350
  H      -5.264443     -2.843441      3.438725
  H      -3.605090     -3.965071      2.129014
  H      -6.239587     -0.998014      2.196423
  O      -4.476828     -0.961123      3.248650
  O      -2.277610     -2.401758      2.113878
  H      -1.811639     -2.753260      1.372229
  O      -3.475719     -2.948066     -0.241648
  O      -5.537892     -0.562008     -0.138009
  H      -5.113458     -0.565396     -0.984907
  C      -3.240523     -2.452504     -1.437956
  O      -3.614354     -1.392309     -1.820090
  C      -2.457720     -3.395452     -2.321200
  H      -3.208801     -3.989823     -2.853350
  H      -1.974256     -2.773942     -3.074129
  C      -1.452812     -4.310920     -1.627043
  H      -1.971485     -4.934457     -0.898219
  H      -0.737486     -3.703469     -1.064450
  C      -0.695029     -5.192677     -2.614020
  H       0.017347     -5.835224     -2.094597
  H      -1.377289     -5.837197     -3.172998
  H      -0.137002     -4.593608     -3.336791
30
Coordinates from ORCA-job 8 Relaxed Surface Scan Step 8
  C      -4.250092     -2.442146      0.845272
  C      -4.675456     -0.971345      0.800694
  C      -5.377024     -0.645150      2.117254
  C      -4.247443     -2.271405      3.341735
  C      -3.483695     -2.770358      2.127328
  H      -5.610636      0.415862      2.135234
  H      -3.796958     -0.334192      0.709177
  H      -5.161935     -3.038354      0.804354
  H      -3.619125     -2.377125      4.222472
  H      -5.146247     -2.885290      3.482460
  H      -3.386272     -3.858851      2.201318
  H      -6.325078     -1.195481      2.159317
  O      -4.586233     -0.931366      3.222806
  O      -2.227947     -2.168172      2.121171
  H      -1.716175     -2.519210      1.410245
  O      -3.425291     -2.945363     -0.222177
  O      -5.602241     -0.729858     -0.203864
  H      -5.129667     -0.620287     -1.016843
  C      -3.102536     -2.375006     -1.363164
  O      -3.391500     -1.266505     -1.675197
  C      -2.333503     -3.289863     -2.288699
  H      -3.075796     -3.673421     -2.997582
  H      -1.675702     -2.644285     -2.870833
  C      -1.561745     -4.440216     -1.649918
  H      -2.250663     -5.076585     -1.093854
  H      -0.853232     -4.041555     -0.918132
  C      -0.805923     -5.272046     -2.680803
  H      -0.261374     -6.086412     -2.200681
  H      -1.488603     -5.714155     -3.410124
  H      -0.081664     -4.665909     -3.229423
30
Coordinates from ORCA-job 8 Relaxed Surface Scan Step 9
  C      -3.962151     -2.468531      1.014166
  C      -4.818408     -1.225781      0.748415
  C      -5.658195     -0.967533      1.996662
  C      -4.120680     -1.944066      3.452596
  C      -3.184698     -2.341851      2.323699
  H      -6.221264     -0.048687      1.857176
  H      -4.178708     -0.362219      0.580772
  H      -4.646028     -3.314939      1.081576
  H      -3.530800     -1.706093      4.334103
  H      -4.776320     -2.790537      3.693545
  H      -2.749383     -3.318413      2.561918
  H      -6.379836     -1.784816      2.119618
  O      -4.871852     -0.821776      3.133144
  O      -2.186198     -1.376642      2.217643
  H      -1.561972     -1.640596      1.560778
  O      -2.995871     -2.858125      0.021962
  O      -5.708716     -1.425772     -0.300021
  H      -5.260064     -1.221817     -1.107466
  C      -2.797178     -2.343283     -1.175745
  O      -3.302773     -1.346236     -1.571449
  C      -1.820963     -3.147883     -1.999171
  H      -1.823937     -2.699360     -2.993990
  H      -0.826172     -2.994559     -1.570456
  C      -2.132603     -4.644048     -2.066557
  H      -3.150962     -4.782923     -2.440203
  H      -2.113845     -5.061606     -1.059333
  C      -1.156636     -5.400852     -2.960625
  H      -1.402607     -6.463312     -2.992550
  H      -1.179825     -5.023444     -3.985204
  H      -0.131109     -5.308349     -2.595461
30
Coordinates from ORCA-job 8 Relaxed Surface Scan Step 10
  C      -3.845041     -2.507031      1.098461
  C      -4.792795     -1.372733      0.704653
  C      -5.744748     -1.155542      1.876059
  C      -4.163233     -1.835684      3.466982
  C      -3.129203     -2.186568      2.406715
  H      -6.401187     -0.318425      1.652839
  H      -4.234621     -0.455753      0.550314
  H      -4.458468     -3.395590      1.245671
  H      -3.652589     -1.456786      4.348603
  H      -4.710034     -2.744406      3.748686
  H      -2.586261     -3.079403      2.735735
  H      -6.372129     -2.045177      2.013789
  O      -5.044645     -0.850315      3.039475
  O      -2.258444     -1.108934      2.265305
  H      -1.587579     -1.312619      1.633348
  O      -2.875611     -2.931311      0.130868
  O      -5.539547     -1.718820     -0.419108
  H      -5.125035     -1.346605     -1.182274
  C      -2.547703     -2.322780     -0.993373
  O      -2.864362     -1.214364     -1.269931
  C      -1.694021     -3.182873     -1.893155
  H      -1.591925     -2.631077     -2.829304
  H      -0.701244     -3.248834     -1.438285
  C      -2.248329     -4.587740     -2.135601
  H      -3.265719     -4.510483     -2.529127
  H      -2.326020     -5.112664     -1.183004
  C      -1.388713     -5.392846     -3.103795
  H      -1.806399     -6.388814     -3.258710
  H      -1.322400     -4.905024     -4.078761
  H      -0.371750     -5.514846     -2.723534
30
Coordinates from ORCA-job 8 Relaxed Surface Scan Step 11
  C      -3.629313     -2.638011      1.346608
  C      -4.753917     -1.881249      0.656726
  C      -5.777417     -1.517048      1.734946
  C      -4.147615     -1.425272      3.424568
  C      -3.021094     -1.780353      2.458890
  H      -6.566632     -0.901056      1.305518
  H      -4.365350     -0.966099      0.213669
  H      -4.071647     -3.512295      1.819734
  H      -3.768364     -0.728878      4.167440
  H      -4.499654     -2.326805      3.941373
  H      -2.280883     -2.391165      2.989322
  H      -6.240804     -2.441229      2.103015
  O      -5.202634     -0.792446      2.769832
  O      -2.457617     -0.589481      2.024922
  H      -2.123887     -0.658316      1.139968
  O      -2.684559     -3.235264      0.465100
  O      -5.321466     -2.705780     -0.315618
  H      -5.818525     -2.190124     -0.930146
  C      -2.041744     -2.613528     -0.499797
  O      -1.996773     -1.429301     -0.614385
  C      -1.384562     -3.580057     -1.446505
  H      -0.556314     -3.061345     -1.926793
  H      -0.989067     -4.416027     -0.869179
  C      -2.383333     -4.092594     -2.492290
  H      -2.773686     -3.240802     -3.054820
  H      -3.235509     -4.542383     -1.979611
  C      -1.758979     -5.098842     -3.451722
  H      -2.489613     -5.438685     -4.187438
  H      -0.918421     -4.661454     -3.995032
  H      -1.390378     -5.978159     -2.918755
30
Coordinates from ORCA-job 8 Relaxed Surface Scan Step 12
  C      -3.639451     -2.621603      1.281842
  C      -4.694982     -1.772509      0.587495
  C      -5.750787     -1.418399      1.638327
  C      -4.210544     -1.528798      3.408269
  C      -3.049560     -1.870051      2.478678
  H      -6.484165     -0.733143      1.214364
  H      -4.245333     -0.856133      0.207227
  H      -4.145973     -3.499907      1.676386
  H      -3.840559     -0.907153      4.218913
  H      -4.635007     -2.444598      3.838058
  H      -2.366489     -2.551281      3.000578
  H      -6.279513     -2.337778      1.920196
  O      -5.194618     -0.796143      2.746549
  O      -2.417737     -0.677953      2.163327
  H      -2.003040     -0.719385      1.311002
  O      -2.693894     -3.212163      0.394187
  O      -5.250811     -2.530046     -0.444633
  H      -5.748899     -1.976071     -1.024364
  C      -1.973812     -2.553476     -0.487877
  O      -1.787031     -1.379010     -0.440641
  C      -1.387459     -3.451060     -1.544852
  H      -0.834997     -2.809017     -2.230199
  H      -0.669703     -4.110407     -1.049157
  C      -2.431726     -4.287222     -2.289377
  H      -3.182731     -3.621806     -2.721936
  H      -2.960901     -4.917917     -1.575025
  C      -1.811673     -5.145035     -3.386400
  H      -2.575959     -5.729910     -3.900596
  H      -1.303559     -4.531922     -4.134194
  H      -1.078840     -5.844150     -2.976608
30
Coordinates from ORCA-job 8 Relaxed Surface Scan Step 13
  C      -3.682884     -2.607913      1.235649
  C      -4.672045     -1.678930      0.544846
  C      -5.732224     -1.288797      1.579587
  C      -4.268373     -1.587163      3.389697
  C      -3.092206     -1.943760      2.484796
  H      -6.401288     -0.535775      1.164023
  H      -4.158710     -0.785288      0.187958
  H      -4.247662     -3.472906      1.576343
  H      -3.895477     -1.035768      4.248288
  H      -4.765192     -2.496865      3.748841
  H      -2.463230     -2.684099      2.994917
  H      -6.332131     -2.180844      1.799880
  O      -5.177020     -0.758310      2.733765
  O      -2.400563     -0.768243      2.254799
  H      -1.885308     -0.826927      1.459474
  O      -2.763694     -3.212970      0.327770
  O      -5.252538     -2.390881     -0.507125
  H      -5.731459     -1.806417     -1.073157
  C      -1.922760     -2.567626     -0.447316
  O      -1.542311     -1.460808     -0.231190
  C      -1.438607     -3.366063     -1.632407
  H      -1.259848     -2.631870     -2.421908
  H      -0.454932     -3.758789     -1.356981
  C      -2.354312     -4.490380     -2.107540
  H      -3.355504     -4.090550     -2.279444
  H      -2.459895     -5.229143     -1.312323
  C      -1.835032     -5.162330     -3.373968
  H      -2.501818     -5.966571     -3.688898
  H      -1.758604     -4.452258     -4.200863
  H      -0.844127     -5.595799     -3.217973
30
Coordinates from ORCA-job 8 Relaxed Surface Scan Step 14
  C      -3.753652     -2.573633      1.174048
  C      -4.756547     -1.624455      0.535796
  C      -5.778233     -1.232953      1.609294
  C      -4.266336     -1.593331      3.364345
  C      -3.119542     -1.921111      2.411678
  H      -6.443141     -0.458730      1.227375
  H      -4.234921     -0.735018      0.175435
  H      -4.310517     -3.441203      1.521979
  H      -3.863829     -1.071016      4.227646
  H      -4.755286     -2.512649      3.709158
  H      -2.458545     -2.653603      2.890991
  H      -6.389251     -2.119139      1.822678
  O      -5.189496     -0.740906      2.763473
  O      -2.468584     -0.727002      2.167662
  H      -1.784486     -0.867225      1.523853
  O      -2.901423     -3.161137      0.192132
  O      -5.395100     -2.302767     -0.503243
  H      -5.884844     -1.696930     -1.036270
  C      -1.813741     -2.679848     -0.356352
  O      -1.167683     -1.783277      0.086583
  C      -1.426366     -3.375341     -1.640246
  H      -1.461519     -2.590603     -2.403438
  H      -0.370639     -3.635932     -1.541054
  C      -2.264381     -4.578089     -2.058326
  H      -3.311581     -4.280515     -2.121525
  H      -2.215316     -5.342010     -1.279578
  C      -1.804471     -5.168222     -3.387177
  H      -2.417061     -6.027703     -3.663980
  H      -1.877557     -4.436026     -4.195052
  H      -0.765704     -5.503669     -3.338345
30
Coordinates from ORCA-job 8 Relaxed Surface Scan Step 15
  C      -3.918164     -2.396605      0.942507
  C      -4.992361     -1.381671      0.584787
  C      -5.896085     -1.147535      1.792081
  C      -4.205724     -1.679784      3.303757
  C      -3.177602     -1.947628      2.211054
  H      -6.611083     -0.356436      1.570843
  H      -4.484478     -0.448904      0.331659
  H      -4.402049     -3.354848      1.141650
  H      -3.691076     -1.262504      4.165088
  H      -4.677746     -2.623329      3.606352
  H      -2.529959     -2.753915      2.556894
  H      -6.466946     -2.064488      1.986448
  O      -5.171600     -0.760362      2.910063
  O      -2.447141     -0.786068      1.998121
  H      -1.624854     -1.034528      1.600151
  O      -3.135738     -2.600838     -0.232986
  O      -5.743169     -1.859089     -0.488978
  H      -6.102707     -1.139949     -0.981468
  C      -1.844164     -2.821982     -0.340999
  O      -1.048203     -2.661704      0.528667
  C      -1.489171     -3.319320     -1.718617
  H      -1.956338     -2.661536     -2.452651
  H      -0.407585     -3.249319     -1.822300
  C      -1.965750     -4.758571     -1.945782
  H      -3.048773     -4.798377     -1.815990
  H      -1.531250     -5.404733     -1.177859
  C      -1.591495     -5.286701     -3.325901
  H      -1.941979     -6.311518     -3.458188
  H      -2.037318     -4.678272     -4.115947
  H      -0.509245     -5.283534     -3.472916
30
Coordinates from ORCA-job 8 Relaxed Surface Scan Step 16
  C      -3.865643     -2.431427      0.993115
  C      -5.003120     -1.518527      0.563010
  C      -5.911243     -1.219629      1.750482
  C      -4.192786     -1.511846      3.289518
  C      -3.155067     -1.858125      2.229461
  H      -6.673944     -0.498273      1.460711
  H      -4.551075     -0.585740      0.219421
  H      -4.282130     -3.409268      1.245439
  H      -3.693815     -0.988833      4.101032
  H      -4.627178     -2.436724      3.690482
  H      -2.499439     -2.617928      2.651532
  H      -6.424690     -2.142871      2.047819
  O      -5.197115     -0.678453      2.809801
  O      -2.432014     -0.713896      1.909391
  H      -1.582305     -0.985631      1.595247
  O      -3.060562     -2.618418     -0.166955
  O      -5.727998     -2.138021     -0.455223
  H      -6.122619     -1.491219     -1.016422
  C      -1.787147     -2.946688     -0.215688
  O      -1.039982     -2.895655      0.707815
  C      -1.388563     -3.389816     -1.600161
  H      -1.649716     -2.591773     -2.297761
  H      -0.306478     -3.510432     -1.603663
  C      -2.089543     -4.685530     -2.022002
  H      -3.168855     -4.528673     -1.993622
  H      -1.865580     -5.468645     -1.291907
  C      -1.668159     -5.151886     -3.410825
  H      -2.182588     -6.074674     -3.683717
  H      -1.906559     -4.402159     -4.168776
  H      -0.593841     -5.343289     -3.458011
30
Coordinates from ORCA-job 8 Relaxed Surface Scan Step 17
  C      -3.736073     -2.388921      1.029643
  C      -4.964545     -1.639511      0.542112
  C      -5.923156     -1.404836      1.702788
  C      -4.194701     -1.373585      3.266733
  C      -3.115597     -1.663502      2.232952
  H      -6.770201     -0.806548      1.370451
  H      -4.619360     -0.670848      0.175129
  H      -4.028586     -3.398096      1.329341
  H      -3.774849     -0.732860      4.037739
  H      -4.506601     -2.316144      3.734340
  H      -2.375760     -2.311033      2.698021
  H      -6.314623     -2.369462      2.050269
  O      -5.296545     -0.714259      2.731474
  O      -2.533080     -0.459034      1.835506
  H      -1.675642     -0.626170      1.478417
  O      -2.878702     -2.501618     -0.095388
  O      -5.580141     -2.369180     -0.474942
  H      -6.018292     -1.788711     -1.074894
  C      -1.740513     -3.173313     -0.062798
  O      -1.165137     -3.439699      0.939231
  C      -1.284359     -3.566579     -1.444070
  H      -1.233783     -2.670507     -2.064042
  H      -0.281232     -3.980018     -1.352296
  C      -2.240951     -4.576144     -2.090047
  H      -3.240376     -4.140493     -2.127872
  H      -2.309916     -5.461655     -1.451827
  C      -1.796492     -4.991812     -3.487560
  H      -2.494072     -5.711410     -3.919073
  H      -1.748470     -4.131862     -4.159688
  H      -0.808000     -5.456235     -3.470109
30
Coordinates from ORCA-job 8 Relaxed Surface Scan Step 18
  C      -3.652651     -2.336817      1.094540
  C      -4.912572     -1.689802      0.551472
  C      -5.889279     -1.483073      1.705368
  C      -4.163994     -1.246070      3.272687
  C      -3.078527     -1.500015      2.237835
  H      -6.779703     -0.961679      1.356090
  H      -4.641645     -0.713110      0.145779
  H      -3.890935     -3.334168      1.461259
  H      -3.798728     -0.529547      4.003804
  H      -4.392458     -2.184216      3.792962
  H      -2.268983     -2.059643      2.712355
  H      -6.206466     -2.461681      2.087391
  O      -5.318843     -0.709194      2.708187
  O      -2.620356     -0.268410      1.769993
  H      -2.007442     -0.407178      1.064635
  O      -2.728558     -2.460288      0.025701
  O      -5.451475     -2.510048     -0.438991
  H      -6.026150     -2.013312     -0.998351
  C      -1.850583     -3.458729      0.041832
  O      -1.593978     -4.072203      1.020663
  C      -1.282931     -3.738052     -1.323794
  H      -1.065249     -2.796904     -1.828199
  H      -0.353520     -4.289898     -1.191010
  C      -2.281185     -4.547914     -2.163191
  H      -3.224784     -4.001317     -2.213159
  H      -2.493082     -5.488984     -1.649371
  C      -1.767188     -4.836434     -3.568690
  H      -2.495009     -5.418625     -4.136139
  H      -1.578786     -3.912099     -4.119701
  H      -0.834697     -5.404638     -3.542416
30
Coordinates from ORCA-job 8 Relaxed Surface Scan Step 19
  C      -3.662477     -2.392046      1.170131
  C      -4.949333     -1.833067      0.594799
  C      -5.882991     -1.469784      1.746781
  C      -4.114767     -1.049759      3.220621
  C      -3.060509     -1.430388      2.193523
  H      -6.785801     -0.994959      1.364297
  H      -4.710258     -0.928108      0.032665
  H      -3.870715     -3.348182      1.644460
  H      -3.728160     -0.253524      3.851436
  H      -4.333843     -1.917767      3.854273
  H      -2.238026     -1.937378      2.707831
  H      -6.184801     -2.390519      2.261584
  O      -5.280209     -0.576470      2.622891
  O      -2.611479     -0.264822      1.574619
  H      -2.046981     -0.491862      0.851826
  O      -2.752565     -2.600471      0.102943
  O      -5.521068     -2.803306     -0.228937
  H      -6.137875     -2.407941     -0.823322
  C      -1.972352     -3.678133      0.102657
  O      -1.851201     -4.388745      1.040150
  C      -1.305548     -3.881889     -1.231361
  H      -0.912862     -2.925046     -1.578961
  H      -0.472471     -4.567043     -1.082019
  C      -2.291954     -4.442840     -2.263779
  H      -3.149807     -3.772153     -2.336378
  H      -2.677446     -5.398686     -1.900275
  C      -1.657801     -4.634693     -3.636350
  H      -2.380710     -5.042561     -4.344675
  H      -1.293706     -3.687561     -4.041215
  H      -0.812038     -5.324342     -3.590675
30
Coordinates from ORCA-job 8 Relaxed Surface Scan Step 20
  C      -3.606159     -2.436624      1.283138
  C      -4.939326     -2.054488      0.668093
  C      -5.864672     -1.553599      1.773911
  C      -4.089418     -0.793306      3.094405
  C      -3.038346     -1.287703      2.113226
  H      -6.804171     -1.201349      1.349530
  H      -4.769712     -1.245579     -0.045635
  H      -3.741746     -3.316220      1.906473
  H      -3.734673      0.118098      3.568730
  H      -4.243816     -1.551023      3.872338
  H      -2.178749     -1.659692      2.682135
  H      -6.096386     -2.387697      2.447873
  O      -5.293403     -0.491490      2.463624
  O      -2.661461     -0.223169      1.297901
  H      -2.104087     -0.545883      0.606253
  O      -2.691348     -2.744660      0.245379
  O      -5.467187     -3.182799      0.040206
  H      -6.129837     -2.933790     -0.583570
  C      -2.155376     -3.961655      0.152881
  O      -2.274484     -4.792155      0.984065
  C      -1.391274     -4.129736     -1.133785
  H      -0.696999     -3.292147     -1.231951
  H      -0.811871     -5.047486     -1.047721
  C      -2.316159     -4.184240     -2.354860
  H      -2.902029     -3.264804     -2.401210
  H      -3.031525     -4.999606     -2.221732
  C      -1.551237     -4.379958     -3.658788
  H      -2.234478     -4.418703     -4.508755
  H      -0.849165     -3.561388     -3.833885
  H      -0.980656     -5.311194     -3.648725
30
Coordinates from ORCA-job 8 Relaxed Surface Scan Step 21
  C      -3.633556     -2.483391      1.318182
  C      -5.021070     -2.191523      0.774549
  C      -5.864754     -1.559871      1.880262
  C      -4.013326     -0.650067      2.973230
  C      -3.030611     -1.243307      1.977322
  H      -6.837114     -1.264724      1.487473
  H      -4.924550     -1.484129     -0.051871
  H      -3.700073     -3.300448      2.032333
  H      -3.635143      0.308116      3.320184
  H      -4.104975     -1.319698      3.837306
  H      -2.125095     -1.543246      2.517265
  H      -6.036416     -2.310455      2.661677
  O      -5.260385     -0.422611      2.399321
  O      -2.732132     -0.271317      1.025993
  H      -2.219194     -0.663669      0.336053
  O      -2.769534     -2.862744      0.260369
  O      -5.588039     -3.394679      0.356039
  H      -6.308866     -3.233165     -0.231037
  C      -2.358179     -4.123116      0.116515
  O      -2.633523     -4.993956      0.863345
  C      -1.482780     -4.270961     -1.100837
  H      -0.656758     -3.561287     -0.999549
  H      -1.070668     -5.278380     -1.078498
  C      -2.230661     -4.017920     -2.413468
  H      -2.635865     -3.004659     -2.407352
  H      -3.087557     -4.694269     -2.470413
  C      -1.343568     -4.212406     -3.637933
  H      -1.902207     -4.027707     -4.556905
  H      -0.492078     -3.528038     -3.623536
  H      -0.951076     -5.230417     -3.686480
30
Coordinates from ORCA-job 8 Relaxed Surface Scan Step 22
  C      -3.685467     -2.521192      1.309955
  C      -5.122388     -2.274828      0.880088
  C      -5.863239     -1.541746      1.998844
  C      -3.931373     -0.572263      2.865872
  C      -3.036783     -1.238669      1.835193
  H      -6.864916     -1.271922      1.666107
  H      -5.111549     -1.653163     -0.017852
  H      -3.680525     -3.296314      2.073464
  H      -3.521804      0.403155      3.115560
  H      -3.956627     -1.181364      3.778021
  H      -2.087780     -1.504748      2.315151
  H      -5.969888     -2.227846      2.848081
  O      -5.218089     -0.373001      2.377328
  O      -2.822719     -0.333652      0.799209
  H      -2.367156     -0.772982      0.097623
  O      -2.893572     -2.945913      0.212253
  O      -5.727978     -3.508611      0.648755
  H      -6.503693     -3.402300      0.122143
  C      -2.532483     -4.219195      0.045998
  O      -2.900766     -5.104782      0.731426
  C      -1.562665     -4.358056     -1.099743
  H      -0.684135     -3.757180     -0.842339
  H      -1.257678     -5.402565     -1.134240
  C      -2.127553     -3.910203     -2.450268
  H      -2.427931     -2.863033     -2.388670
  H      -3.035708     -4.480573     -2.663128
  C      -1.131516     -4.095058     -3.589617
  H      -1.561013     -3.771323     -4.539018
  H      -0.222842     -3.512626     -3.420222
  H      -0.839917     -5.142091     -3.696436
30
Coordinates from ORCA-job 8 Relaxed Surface Scan Step 23
  C      -3.723053     -2.545616      1.293418
  C      -5.195964     -2.338384      0.973195
  C      -5.852466     -1.533401      2.097095
  C      -3.872764     -0.518830      2.769949
  C      -3.052325     -1.233255      1.711233
  H      -6.877304     -1.286464      1.822357
  H      -5.269856     -1.786761      0.033358
  H      -3.647010     -3.288314      2.086020
  H      -3.449130      0.467212      2.942650
  H      -3.832860     -1.082803      3.710274
  H      -2.068084     -1.471549      2.131157
  H      -5.893567     -2.169248      2.989942
  O      -5.189975     -0.344180      2.361744
  O      -2.923538     -0.377908      0.620691
  H      -2.513666     -0.847243     -0.089396
  O      -2.992058     -2.997426      0.162622
  O      -5.810144     -3.586693      0.895683
  H      -6.620796     -3.527709      0.416535
  C      -2.681303     -4.280454     -0.033663
  O      -3.131866     -5.172871      0.589393
  C      -1.640086     -4.424816     -1.115121
  H      -0.733818     -3.941321     -0.732741
  H      -1.432550     -5.488896     -1.214943
  C      -2.032919     -3.816758     -2.463228
  H      -2.233979     -2.751728     -2.338422
  H      -2.969412     -4.269761     -2.799833
  C      -0.960085     -4.016655     -3.527960
  H      -1.267396     -3.577257     -4.478266
  H      -0.017979     -3.547829     -3.234256
  H      -0.763800     -5.077130     -3.699945
30
Coordinates from ORCA-job 8 Relaxed Surface Scan Step 24
  C      -3.748979     -2.558671      1.273001
  C      -5.248314     -2.393369      1.059231
  C      -5.835849     -1.538094      2.185631
  C      -3.833759     -0.474261      2.680603
  C      -3.077160     -1.219130      1.596487
  H      -6.880435     -1.317884      1.969426
  H      -5.406790     -1.899854      0.097804
  H      -3.600362     -3.271272      2.083760
  H      -3.412220      0.522020      2.787136
  H      -3.724815     -1.000935      3.637047
  H      -2.061828     -1.426262      1.954264
  H      -5.807658     -2.132376      3.107045
  O      -5.176241     -0.330318      2.352785
  O      -3.040706     -0.404284      0.468755
  H      -2.672706     -0.893901     -0.250304
  O      -3.071714     -3.028372      0.114096
  O      -5.847775     -3.650086      1.109287
  H      -6.670611     -3.645398      0.648115
  C      -2.810746     -4.317880     -0.113193
  O      -3.330307     -5.208131      0.455565
  C      -1.721274     -4.484026     -1.143829
  H      -0.797289     -4.149462     -0.656598
  H      -1.624567     -5.552661     -1.328558
  C      -1.934855     -3.720490     -2.451418
  H      -2.008878     -2.652161     -2.243875
  H      -2.892970     -4.016255     -2.887428
  C      -0.819009     -3.970004     -3.460151
  H      -0.996610     -3.415852     -4.383155
  H       0.149864     -3.655768     -3.065013
  H      -0.745188     -5.028912     -3.716974
