27
Coordinates from ORCA-job 7 Relaxed Surface Scan Step 1
  C       1.061728     -1.676310     -1.597749
  H       2.147261     -1.562460     -1.575044
  H       0.661087     -0.907468     -2.262726
  H       0.839947     -2.648196     -2.044779
  C       0.465187     -1.559115     -0.197289
  H       0.753806     -0.598641      0.230806
  H       0.901339     -2.325931      0.450120
  C      -1.046440     -1.722966     -0.188677
  H      -1.609633     -0.909160     -0.791629
  H      -1.302140     -2.681643     -0.649952
  C      -1.911612     -1.475872      1.077282
  C      -2.465996     -1.096799      2.547962
  C      -1.541987     -0.227865      1.801977
  H      -2.779609     -1.897547      0.629443
  H      -2.152809     -1.508684      3.505544
  H      -3.537857     -0.980807      2.443141
  H      -0.569897     -0.539476      2.190459
  C      -1.289800      1.204494      1.355561
  H      -0.196725      1.133802      1.137220
  H      -1.813224      1.444807      0.426893
  C      -1.558987      2.297566      2.390553
  H      -1.342416      3.268961      1.936809
  H      -2.627634      2.305867      2.626743
  C      -0.755616      2.162159      3.681422
  H      -0.967616      2.990535      4.360331
  H      -0.989830      1.236530      4.210007
  H       0.318827      2.167481      3.479913
27
Coordinates from ORCA-job 7 Relaxed Surface Scan Step 2
  C       0.921974     -1.734614     -1.812387
  H       1.983803     -1.503271     -1.916807
  H       0.373873     -1.100797     -2.513611
  H       0.777000     -2.772310     -2.121968
  C       0.446727     -1.510105     -0.379063
  H       0.653848     -0.478451     -0.091622
  H       1.026637     -2.141817      0.300778
  C      -1.028546     -1.821667     -0.193379
  H      -1.740431     -1.144107     -0.825169
  H      -1.230134     -2.849206     -0.512011
  C      -1.787661     -1.482045      1.126989
  C      -2.442031     -0.962734      2.570446
  C      -1.390247     -0.237842      1.844563
  H      -2.639358     -1.974254      0.757328
  H      -2.248221     -1.332784      3.576551
  H      -3.486461     -0.793239      2.342720
  H      -0.476244     -0.632738      2.297005
  C      -0.970029      1.189675      1.483024
  H       0.138710      1.082093      1.580943
  H      -1.199531      1.429374      0.442057
  C      -1.489156      2.306387      2.389112
  H      -1.166433      3.267833      1.979569
  H      -2.583103      2.315430      2.351312
  C      -1.029715      2.209164      3.841750
  H      -1.415066      3.044810      4.429465
  H      -1.371769      1.288160      4.316403
  H       0.060923      2.232317      3.910339
27
Coordinates from ORCA-job 7 Relaxed Surface Scan Step 3
  C       0.647087     -1.822145     -2.104382
  H       0.486540     -2.302360     -3.071643
  H       1.403901     -2.400224     -1.568627
  H       1.063122     -0.829354     -2.293044
  C      -0.650166     -1.736168     -1.306658
  H      -1.053403     -2.743193     -1.160937
  H      -1.401381     -1.192238     -1.886965
  C      -0.484648     -1.053724      0.049041
  H       0.276053     -1.571094      0.656316
  H      -0.107618     -0.042086     -0.102467
  C      -1.732591     -1.044127      0.904451
  C      -2.841223     -0.033164      0.857519
  C      -1.856252     -0.011134      1.989283
  H      -2.075973     -2.055338      1.108385
  H      -2.817849      0.765682      0.123691
  H      -3.834534     -0.403695      1.081122
  H      -2.230131     -0.362366      2.944683
  C      -0.841497      1.130016      2.082459
  H       0.179774      0.761897      1.927223
  H      -1.015375      1.826399      1.259037
  C      -0.911907      1.915120      3.395361
  H      -0.315989      2.825335      3.285942
  H      -1.941613      2.246107      3.561613
  C      -0.413575      1.152274      4.620470
  H      -0.459261      1.778057      5.514164
  H      -1.006735      0.257714      4.818538
  H       0.624604      0.837071      4.489765
27
Coordinates from ORCA-job 7 Relaxed Surface Scan Step 4
  C       0.371577     -1.771362     -2.442728
  H       0.096176     -2.343738     -3.330712
  H       1.307594     -2.184799     -2.059208
  H       0.569897     -0.744423     -2.759456
  C      -0.729246     -1.822730     -1.388283
  H      -0.930625     -2.865821     -1.125415
  H      -1.659817     -1.432865     -1.811381
  C      -0.392021     -1.040245     -0.119589
  H       0.532298     -1.433693      0.320734
  H      -0.181784     -0.002963     -0.388073
  C      -1.488464     -1.103057      0.924474
  C      -2.563494     -0.061978      1.042573
  C      -1.519909     -0.190076      2.114108
  H      -1.822315     -2.119137      1.117119
  H      -2.503490      0.802538      0.389211
  H      -3.577375     -0.381809      1.252308
  H      -1.854070     -0.661990      3.031756
  C      -0.483322      0.899952      2.320899
  H       0.476241      0.449923      2.599423
  H      -0.305377      1.412547      1.374554
  C      -0.875049      1.951100      3.364909
  H      -0.150043      2.768564      3.316194
  H      -1.840845      2.385846      3.089928
  C      -0.936550      1.441425      4.802787
  H      -1.165275      2.255996      5.493000
  H      -1.704629      0.677915      4.936839
  H       0.019273      1.008141      5.108367
27
Coordinates from ORCA-job 7 Relaxed Surface Scan Step 5
  C       0.118738     -1.625114     -2.601729
  H      -0.334564     -2.037652     -3.505202
  H       1.037357     -2.184073     -2.407262
  H       0.401052     -0.591274     -2.815847
  C      -0.839355     -1.703367     -1.417442
  H      -1.130275     -2.745784     -1.254707
  H      -1.761680     -1.166979     -1.657652
  C      -0.251284     -1.138348     -0.123219
  H       0.674732     -1.675165      0.103552
  H       0.030178     -0.095750     -0.286591
  C      -1.209560     -1.251319      1.045549
  C      -2.323386     -0.262333      1.218492
  C      -1.232951     -0.346239      2.245758
  H      -1.462173     -2.280421      1.282763
  H      -2.317884      0.599729      0.558738
  H      -3.317603     -0.612117      1.471006
  H      -1.520301     -0.860706      3.156906
  C      -0.262651      0.792096      2.492150
  H       0.594525      0.403370      3.052666
  H       0.132091      1.161502      1.544496
  C      -0.860751      1.976433      3.259389
  H      -0.107152      2.767866      3.308400
  H      -1.697123      2.389288      2.687581
  C      -1.327574      1.654120      4.676482
  H      -1.676718      2.555411      5.184369
  H      -2.151034      0.937976      4.681500
  H      -0.515297      1.232113      5.274192
27
Coordinates from ORCA-job 7 Relaxed Surface Scan Step 6
  C      -0.074870     -1.464512     -2.643365
  H      -0.674110     -1.656225     -3.535623
  H       0.722018     -2.211635     -2.613255
  H       0.395920     -0.485719     -2.765281
  C      -0.931363     -1.513382     -1.382011
  H      -1.410725     -2.494345     -1.305998
  H      -1.743739     -0.787573     -1.467426
  C      -0.134093     -1.246826     -0.101615
  H       0.684219     -1.970542     -0.078345
  H       0.321535     -0.255266     -0.161931
  C      -0.978341     -1.385059      1.154646
  C      -2.147991     -0.472172      1.361272
  C      -1.020704     -0.463212      2.348131
  H      -1.122122     -2.417017      1.453132
  H      -2.218971      0.374240      0.685966
  H      -3.110409     -0.874368      1.656468
  H      -1.249244     -1.001752      3.262252
  C      -0.134924      0.741843      2.603610
  H       0.613527      0.446213      3.347485
  H       0.410788      1.020189      1.700100
  C      -0.875508      1.976276      3.129509
  H      -0.153835      2.792206      3.231022
  H      -1.603375      2.307436      2.383301
  C      -1.581698      1.770710      4.466684
  H      -2.042720      2.698846      4.810524
  H      -2.370444      1.019679      4.396282
  H      -0.879462      1.445229      5.238807
27
Coordinates from ORCA-job 7 Relaxed Surface Scan Step 7
  C       0.120683     -1.016345     -2.382752
  H      -0.346739     -0.493674     -3.219551
  H       0.286035     -2.051925     -2.689704
  H       1.100077     -0.562185     -2.213813
  C      -0.748887     -0.941206     -1.131054
  H      -1.731212     -1.369355     -1.346945
  H      -0.924192      0.108413     -0.885710
  C      -0.130037     -1.681499      0.056217
  H       0.016238     -2.720732     -0.253940
  H       0.873144     -1.285958      0.245915
  C      -0.919474     -1.718233      1.365033
  C      -2.252471     -1.056862      1.565653
  C      -1.060776     -0.582589      2.341232
  H      -0.818872     -2.676563      1.861568
  H      -2.621071     -0.412311      0.776795
  H      -3.035235     -1.600150      2.082202
  H      -1.041116     -0.903679      3.377626
  C      -0.452832      0.790140      2.133685
  H       0.559521      0.788951      2.552158
  H      -0.338614      0.992024      1.068079
  C      -1.249182      1.939704      2.760692
  H      -0.768819      2.881943      2.481134
  H      -2.249465      1.966428      2.318258
  C      -1.370673      1.882041      4.281135
  H      -1.888343      2.764448      4.662687
  H      -1.931901      1.006629      4.612200
  H      -0.386429      1.845807      4.755542
27
Coordinates from ORCA-job 7 Relaxed Surface Scan Step 8
  C       0.024983     -1.019781     -2.418704
  H      -0.363392     -0.338999     -3.178695
  H      -0.113784     -2.039730     -2.785334
  H       1.099868     -0.843182     -2.333648
  C      -0.679670     -0.811509     -1.080785
  H      -1.753815     -0.955996     -1.218847
  H      -0.548814      0.226622     -0.771315
  C      -0.172658     -1.773151     -0.004682
  H      -0.366865     -2.792027     -0.366395
  H       0.915692     -1.683625      0.077771
  C      -0.784516     -1.716180      1.390593
  C      -2.117381     -1.098149      1.686129
  C      -0.886534     -0.568260      2.361419
  H      -0.582748     -2.644435      1.910335
  H      -2.557654     -0.483654      0.909844
  H      -2.848093     -1.645334      2.270984
  H      -0.785805     -0.906873      3.387846
  C      -0.357276      0.842254      2.179909
  H       0.596971      0.908997      2.713933
  H      -0.136828      1.043830      1.132173
  C      -1.287483      1.941023      2.705376
  H      -0.835476      2.911276      2.478997
  H      -2.230699      1.910063      2.152149
  C      -1.577961      1.868309      4.201972
  H      -2.194497      2.711475      4.520046
  H      -2.112021      0.954267      4.467218
  H      -0.654187      1.896035      4.786050
27
Coordinates from ORCA-job 7 Relaxed Surface Scan Step 9
  C      -0.396924     -0.674272     -2.290584
  H      -0.732632      0.205574     -2.842872
  H      -0.884392     -1.547800     -2.730016
  H       0.678144     -0.778550     -2.455184
  C      -0.720854     -0.548912     -0.804215
  H      -1.798079     -0.408425     -0.689334
  H      -0.248481      0.354149     -0.413399
  C      -0.265998     -1.770504     -0.006732
  H      -0.760037     -2.662614     -0.424213
  H       0.807676     -1.915261     -0.166144
  C      -0.548946     -1.829334      1.486413
  C      -1.811163     -1.306582      2.090397
  C      -0.489615     -0.774385      2.565749
  H      -0.208199     -2.782200      1.871281
  H      -2.416683     -0.658786      1.469657
  H      -2.395620     -1.932262      2.756039
  H      -0.187311     -1.225565      3.504653
  C      -0.012314      0.677396      2.479955
  H       0.504688      0.881022      3.424858
  H       0.743023      0.781491      1.698267
  C      -1.081938      1.758438      2.293618
  H      -0.573099      2.712169      2.125628
  H      -1.658379      1.567399      1.385457
  C      -2.030349      1.910128      3.479816
  H      -2.762095      2.700025      3.297523
  H      -2.579583      0.989017      3.679662
  H      -1.481482      2.171908      4.388062
27
Coordinates from ORCA-job 7 Relaxed Surface Scan Step 10
  C      -0.648545     -0.655272     -2.322569
  H      -0.976285      0.248956     -2.839127
  H      -1.272433     -1.481569     -2.671602
  H       0.377903     -0.861730     -2.634831
  C      -0.744768     -0.491378     -0.808075
  H      -1.776543     -0.248018     -0.544245
  H      -0.136078      0.362936     -0.501260
  C      -0.285328     -1.736214     -0.055427
  H      -0.891990     -2.610283     -0.368502
  H       0.745180     -1.958162     -0.350312
  C      -0.380893     -1.774149      1.461966
  C      -1.628446     -1.375080      2.177144
  C      -0.321594     -0.809643      2.635014
  H       0.068582     -2.701053      1.789405
  H      -2.281105     -0.707464      1.628947
  H      -2.166478     -2.079147      2.804309
  H       0.078054     -1.366997      3.476040
  C       0.027170      0.661142      2.832966
  H       0.094028      0.776134      3.926825
  H       1.033020      0.844367      2.445673
  C      -0.930847      1.731448      2.297361
  H      -0.387387      2.678954      2.248085
  H      -1.219431      1.505110      1.269641
  C      -2.180264      1.939907      3.151136
  H      -2.827404      2.704789      2.716343
  H      -2.767254      1.026410      3.251623
  H      -1.911506      2.269269      4.157813
27
Coordinates from ORCA-job 7 Relaxed Surface Scan Step 11
  C      -0.820656     -0.780788     -2.415460
  H      -1.247882      0.066450     -2.955377
  H      -1.399771     -1.668874     -2.679647
  H       0.197407     -0.928898     -2.783236
  C      -0.836541     -0.539664     -0.908399
  H      -1.864747     -0.351841     -0.591587
  H      -0.272834      0.370301     -0.683583
  C      -0.242554     -1.702409     -0.120944
  H      -0.823965     -2.642033     -0.302417
  H       0.772504     -1.889419     -0.484710
  C      -0.240680     -1.662115      1.401168
  C      -1.502154     -1.339839      2.122554
  C      -0.236175     -0.774017      2.655671
  H       0.281787     -2.552448      1.711873
  H      -2.142266     -0.646219      1.592773
  H      -2.058299     -2.088909      2.681011
  H       0.179997     -1.416173      3.425951
  C      -0.017662      0.649372      3.136833
  H      -0.280678      0.572013      4.213034
  H       1.052145      0.871098      3.099237
  C      -0.799148      1.793125      2.480487
  H      -0.238768      2.720389      2.624429
  H      -0.839084      1.639533      1.398988
  C      -2.209686      2.002700      3.029025
  H      -2.712221      2.821653      2.509845
  H      -2.831667      1.113365      2.925650
  H      -2.177046      2.256912      4.091169
27
Coordinates from ORCA-job 7 Relaxed Surface Scan Step 12
  C      -0.879268     -1.004791     -2.556108
  H      -1.363047     -0.229439     -3.153267
  H      -1.415674     -1.940729     -2.730083
  H       0.136934     -1.130781     -2.936912
  C      -0.875880     -0.638601     -1.074518
  H      -1.904988     -0.472451     -0.749201
  H      -0.351746      0.312349     -0.937041
  C      -0.212370     -1.700388     -0.205974
  H      -0.785100     -2.675517     -0.235936
  H       0.787229     -1.908291     -0.599375
  C      -0.157770     -1.523939      1.309425
  C      -1.424511     -1.186708      2.003091
  C      -0.187458     -0.680198      2.626601
  H       0.381312     -2.394408      1.634989
  H      -2.003426     -0.443232      1.469589
  H      -2.048320     -1.932297      2.495174
  H       0.204300     -1.399160      3.339053
  C      -0.056848      0.660852      3.325147
  H      -0.473645      0.398383      4.330187
  H       1.001810      0.884423      3.478625
  C      -0.760701      1.887650      2.733628
  H      -0.217753      2.783612      3.044457
  H      -0.681001      1.860063      1.642614
  C      -2.222443      2.054345      3.145945
  H      -2.660494      2.938805      2.678451
  H      -2.833524      1.195599      2.867524
  H      -2.306262      2.178109      4.228255
27
Coordinates from ORCA-job 7 Relaxed Surface Scan Step 13
  C      -0.946352     -1.251132     -2.671884
  H      -1.459633     -0.544428     -3.326796
  H      -1.486459     -2.199845     -2.719248
  H       0.052070     -1.418543     -3.082578
  C      -0.877679     -0.726694     -1.240291
  H      -1.891249     -0.525225     -0.887336
  H      -0.350867      0.232612     -1.229072
  C      -0.172865     -1.688122     -0.293136
  H      -0.749354     -2.666736     -0.176464
  H       0.809584     -1.942371     -0.701468
  C      -0.074006     -1.373991      1.203772
  C      -1.336050     -0.997209      1.871573
  C      -0.134464     -0.568683      2.591913
  H       0.464259     -2.233374      1.547552
  H      -1.842734     -0.199075      1.341349
  H      -2.034500     -1.725189      2.290930
  H       0.229194     -1.359590      3.238539
  C      -0.098786      0.664128      3.480010
  H      -0.636388      0.236314      4.373965
  H       0.928066      0.860406      3.797092
  C      -0.749530      1.965789      2.997528
  H      -0.246023      2.806336      3.481212
  H      -0.560517      2.087081      1.926538
  C      -2.246120      2.086917      3.280624
  H      -2.637585      3.033716      2.902473
  H      -2.823236      1.283800      2.822013
  H      -2.439419      2.056370      4.355529
27
Coordinates from ORCA-job 7 Relaxed Surface Scan Step 14
  C      -1.032325     -1.461767     -2.738201
  H      -1.568802     -0.810434     -3.430810
  H      -1.592902     -2.396469     -2.660085
  H      -0.062925     -1.694131     -3.185213
  C      -0.870278     -0.800186     -1.372488
  H      -1.856988     -0.539313     -0.983849
  H      -0.324962      0.141868     -1.485723
  C      -0.130593     -1.678586     -0.374397
  H      -0.719294     -2.633692     -0.121992
  H       0.826593     -1.992881     -0.799471
  C       0.026300     -1.238922      1.089893
  C      -1.210077     -0.801706      1.750362
  C      -0.059159     -0.455769      2.572448
  H       0.559655     -2.085880      1.461953
  H      -1.647502      0.048141      1.236108
  H      -1.982547     -1.499774      2.097178
  H       0.293384     -1.307446      3.140842
  C      -0.150006      0.653532      3.610938
  H      -0.800871      0.092745      4.352806
  H       0.819936      0.802433      4.089872
  C      -0.759336      2.008571      3.230272
  H      -0.312519      2.780255      3.861580
  H      -0.464479      2.258943      2.206927
  C      -2.277598      2.103255      3.373707
  H      -2.633757      3.093264      3.081163
  H      -2.800385      1.369520      2.759849
  H      -2.579204      1.937690      4.410672
27
Coordinates from ORCA-job 7 Relaxed Surface Scan Step 15
  C      -1.153854     -1.594406     -2.766138
  H      -1.703667     -0.959689     -3.463579
  H      -1.751324     -2.492769     -2.593173
  H      -0.228093     -1.902540     -3.257644
  C      -0.870372     -0.859885     -1.459098
  H      -1.814996     -0.527531     -1.022867
  H      -0.292372      0.045652     -1.666902
  C      -0.103865     -1.709093     -0.455583
  H      -0.718669     -2.613469     -0.108544
  H       0.808005     -2.100002     -0.914012
  C       0.148361     -1.189119      0.951488
  C      -0.992897     -0.630143      1.668112
  C       0.060536     -0.337123      2.623478
  H       0.708310     -1.982077      1.398053
  H      -1.370044      0.262715      1.172455
  H      -1.858175     -1.263699      1.957044
  H       0.487452     -1.223784      3.071707
  C      -0.218196      0.641044      3.745592
  H      -0.971378     -0.003434      4.303659
  H       0.654274      0.743128      4.392877
  C      -0.800874      2.023787      3.419097
  H      -0.442807      2.736161      4.165648
  H      -0.391302      2.366502      2.464819
  C      -2.326611      2.097660      3.388372
  H      -2.660664      3.107074      3.139697
  H      -2.760402      1.416225      2.655967
  H      -2.747018      1.842076      4.363816
27
Coordinates from ORCA-job 7 Relaxed Surface Scan Step 16
  C      -1.276746     -1.669855     -2.768597
  H      -1.828213     -1.022478     -3.452734
  H      -1.907747     -2.534209     -2.548169
  H      -0.391471     -2.032227     -3.296422
  C      -0.896129     -0.924391     -1.493571
  H      -1.800230     -0.539195     -1.017268
  H      -0.286710     -0.052261     -1.747898
  C      -0.122049     -1.792106     -0.506104
  H      -0.767757     -2.642209     -0.138009
  H       0.740507     -2.250197     -0.996045
  C       0.239386     -1.217287      0.823212
  C      -0.758957     -0.472769      1.600813
  C       0.159496     -0.226961      2.716797
  H       0.932971     -1.853032      1.337670
  H      -1.068307      0.449495      1.097983
  H      -1.732680     -1.003868      1.830978
  H       0.762622     -1.071677      3.016642
  C      -0.301381      0.603105      3.873617
  H      -1.118993     -0.051380      4.288204
  H       0.475752      0.652440      4.637829
  C      -0.850974      2.013602      3.591400
  H      -0.626249      2.646922      4.452492
  H      -0.300643      2.448106      2.752541
  C      -2.353326      2.090298      3.326560
  H      -2.657379      3.119460      3.124478
  H      -2.656124      1.482407      2.473703
  H      -2.919313      1.743528      4.194238
27
Coordinates from ORCA-job 7 Relaxed Surface Scan Step 17
  C      -0.683478     -2.725334     -2.362413
  H      -0.022897     -3.527895     -2.694773
  H      -0.795473     -2.018812     -3.189715
  H      -1.666890     -3.172703     -2.171478
  C      -0.127848     -2.029389     -1.121181
  H       0.823280     -1.531564     -1.373291
  H       0.109395     -2.776763     -0.360632
  C      -1.093319     -0.993069     -0.537672
  H      -1.606566     -0.414122     -1.320762
  H      -1.875384     -1.520156      0.030696
  C      -0.425106      0.046825      0.329762
  C      -1.252899      1.149828      0.911236
  C      -0.013262      0.813338      1.719886
  H       0.294571      0.451563     -0.325528
  H      -1.434833      2.114581      0.439814
  H      -2.166226      0.762141      1.393648
  H       0.691735      1.622144      1.595889
  C       0.020209      0.582982      3.233111
  H       0.046840     -0.438566      3.566978
  H       1.007635      0.934661      3.510607
  C      -0.950449      1.417353      4.084421
  H      -0.521010      1.403594      5.101826
  H      -0.913827      2.476099      3.761218
  C      -2.404254      0.915348      4.199077
  H      -2.811065      1.175889      5.183408
  H      -3.074108      1.361601      3.449078
  H      -2.465415     -0.186315      4.121132
27
Coordinates from ORCA-job 7 Relaxed Surface Scan Step 18
  C      -1.600902     -2.595598     -0.826234
  H      -1.150972     -3.581369     -0.959410
  H      -2.091941     -2.325953     -1.764437
  H      -2.377541     -2.686787     -0.062947
  C      -0.554031     -1.558155     -0.433196
  H       0.225649     -1.523919     -1.200343
  H      -0.052397     -1.871848      0.486429
  C      -1.129039     -0.153565     -0.248625
  H      -1.596154      0.164126     -1.188972
  H      -1.930531     -0.172876      0.490493
  C      -0.082224      0.881420      0.107935
  C      -0.457290      2.240312      0.616510
  C       0.369750      1.331988      1.474666
  H       0.732106      0.877990     -0.610474
  H       0.000930      3.121634      0.182172
  H      -1.496158      2.384824      0.892500
  H       1.423813      1.594173      1.468574
  C      -0.011830      0.872702      2.878815
  H       0.652114      0.048125      3.156928
  H       0.279116      1.700380      3.531039
  C      -1.466032      0.489884      3.215168
  H      -1.716618      0.924161      4.185772
  H      -2.160492      0.950593      2.510777
  C      -1.728804     -1.012249      3.296093
  H      -2.777104     -1.214447      3.526456
  H      -1.489117     -1.523920      2.364577
  H      -1.124945     -1.468366      4.084071
27
Coordinates from ORCA-job 7 Relaxed Surface Scan Step 19
  C      -1.312750     -2.537328     -1.314053
  H      -0.786348     -3.468220     -1.533806
  H      -1.800499     -2.207233     -2.234514
  H      -2.097652     -2.764492     -0.588351
  C      -0.357641     -1.473774     -0.781959
  H       0.437188     -1.301763     -1.514353
  H       0.139039     -1.846772      0.118075
  C      -1.044309     -0.143987     -0.469007
  H      -1.528335      0.232452     -1.378196
  H      -1.847656     -0.310029      0.250802
  C      -0.091795      0.922299      0.030974
  C      -0.580617      2.137055      0.755635
  C       0.290988      1.144408      1.470359
  H       0.723886      1.097767     -0.664090
  H      -0.169388      3.107519      0.503023
  H      -1.633108      2.166221      1.011254
  H       1.321274      1.469318      1.571861
  C      -0.142552      0.306087      2.671980
  H       0.111382     -0.742847      2.491170
  H       0.486378      0.611167      3.513088
  C      -1.596646      0.406875      3.136339
  H      -1.827471      1.450288      3.365521
  H      -2.280838      0.113081      2.338073
  C      -1.876264     -0.451699      4.366505
  H      -2.914275     -0.350844      4.689431
  H      -1.693863     -1.509699      4.163038
  H      -1.238770     -0.162587      5.205540
27
Coordinates from ORCA-job 7 Relaxed Surface Scan Step 20
  C      -0.737621     -2.679716     -1.652897
  H      -0.078494     -3.546629     -1.730080
  H      -1.003612     -2.374110     -2.667774
  H      -1.654756     -3.004717     -1.155380
  C      -0.067782     -1.541393     -0.889889
  H       0.864653     -1.266961     -1.392978
  H       0.218659     -1.888829      0.106795
  C      -0.948813     -0.299712     -0.756570
  H      -1.236376      0.052069     -1.755669
  H      -1.881446     -0.565689     -0.252746
  C      -0.274015      0.852139     -0.041320
  C      -1.081357      1.953974      0.571811
  C      -0.251982      1.058926      1.447482
  H       0.643272      1.165251     -0.530376
  H      -0.776022      2.983740      0.427511
  H      -2.157532      1.816547      0.599708
  H       0.669066      1.510372      1.805781
  C      -0.869033      0.126338      2.468644
  H      -1.798783     -0.299035      2.088723
  H      -0.193734     -0.718640      2.639629
  C      -1.151922      0.818329      3.802733
  H      -0.222128      1.245874      4.190423
  H      -1.824656      1.663686      3.632010
  C      -1.756154     -0.110833      4.850646
  H      -1.942123      0.417513      5.787771
  H      -2.708019     -0.526369      4.510753
  H      -1.089933     -0.948864      5.069598
27
Coordinates from ORCA-job 7 Relaxed Surface Scan Step 21
  C      -0.705889     -2.705650     -1.393862
  H      -0.002598     -3.539849     -1.432557
  H      -1.041436     -2.508043     -2.414909
  H      -1.575595     -3.032902     -0.818615
  C      -0.063868     -1.469647     -0.771656
  H       0.823217     -1.192479     -1.349688
  H       0.295251     -1.711989      0.231170
  C      -1.008943     -0.266896     -0.705320
  H      -1.357369     -0.066525     -1.715766
  H      -1.902282     -0.534866     -0.140785
  C      -0.340512      0.962534     -0.113161
  C      -1.033400      2.069596      0.633363
  C      -0.177734      1.098408      1.377976
  H       0.471516      1.334846     -0.737294
  H      -0.673438      3.078312      0.469970
  H      -2.106312      2.009756      0.786275
  H       0.780018      1.462436      1.738056
  C      -0.874179      0.131905      2.321910
  H      -1.840917     -0.160206      1.890200
  H      -0.288081     -0.787358      2.418786
  C      -1.101329      0.725402      3.712425
  H      -0.137786      1.022200      4.138063
  H      -1.686309      1.644908      3.619769
  C      -1.803606     -0.231055      4.670892
  H      -1.945113      0.225509      5.652472
  H      -2.788667     -0.517688      4.294280
  H      -1.225281     -1.147397      4.812344
27
Coordinates from ORCA-job 7 Relaxed Surface Scan Step 22
  C      -0.615318     -2.721915     -1.246830
  H       0.140601     -3.509684     -1.256849
  H      -0.979016     -2.600001     -2.270133
  H      -1.452634     -3.075088     -0.639617
  C      -0.045485     -1.416993     -0.698944
  H       0.811687     -1.112837     -1.307699
  H       0.347076     -1.586041      0.304774
  C      -1.068650     -0.273292     -0.687700
  H      -1.405003     -0.182658     -1.711596
  H      -1.946755     -0.569245     -0.116465
  C      -0.446876      1.017690     -0.162357
  C      -1.006934      2.124254      0.706423
  C      -0.150451      1.084825      1.319492
  H       0.229302      1.463971     -0.897918
  H      -0.594400      3.105681      0.504833
  H      -2.054676      2.149725      0.987631
  H       0.842925      1.351770      1.667277
  C      -0.939552      0.139615      2.224432
  H      -1.958544      0.035750      1.807528
  H      -0.500418     -0.861531      2.233684
  C      -1.028999      0.651949      3.662128
  H      -0.018428      0.762794      4.067185
  H      -1.465876      1.654608      3.662073
  C      -1.842347     -0.257665      4.577516
  H      -1.880094      0.136728      5.594870
  H      -2.871290     -0.358901      4.223484
  H      -1.410490     -1.260247      4.627115
27
Coordinates from ORCA-job 7 Relaxed Surface Scan Step 23
  C      -0.559851     -2.726954     -1.162300
  H       0.214509     -3.494993     -1.110707
  H      -0.865251     -2.636172     -2.207708
  H      -1.422864     -3.089381     -0.597879
  C      -0.054955     -1.397522     -0.608882
  H       0.828727     -1.083727     -1.173154
  H       0.284197     -1.540831      0.415499
  C      -1.105941     -0.277828     -0.704002
  H      -1.309920     -0.245461     -1.763418
  H      -2.030021     -0.580540     -0.213058
  C      -0.544660      1.055449     -0.195266
  C      -0.995449      2.141705      0.773998
  C      -0.132261      1.064150      1.267984
  H      -0.027366      1.588893     -1.004697
  H      -0.564696      3.107504      0.536839
  H      -2.005231      2.216840      1.163631
  H       0.884955      1.265618      1.590109
  C      -0.970605      0.138508      2.163400
  H      -2.010673      0.144648      1.770115
  H      -0.624427     -0.895797      2.134504
  C      -0.976666      0.606465      3.619520
  H       0.050041      0.612329      3.998198
  H      -1.322475      1.642741      3.668364
  C      -1.843328     -0.261472      4.526648
  H      -1.818901      0.096964      5.557623
  H      -2.886168     -0.258543      4.199908
  H      -1.501361     -1.299330      4.529072
27
Coordinates from ORCA-job 7 Relaxed Surface Scan Step 24
  C      -1.135682     -2.668502     -1.501532
  H      -2.021659     -3.267628     -1.720695
  H      -0.480059     -3.269320     -0.866431
  H      -0.611605     -2.496091     -2.444520
  C      -1.512652     -1.353211     -0.822110
  H      -1.979697     -1.581280      0.138001
  H      -2.273016     -0.837938     -1.413506
  C      -0.313908     -0.426203     -0.623566
  H       0.406056     -0.882224      0.072920
  H       0.217997     -0.362296     -1.576049
  C      -0.556499      1.010520     -0.156574
  C      -1.734250      1.554768      0.609607
  C      -0.414367      1.404094      1.287378
  H      -0.176143      1.715531     -0.886604
  H      -2.098911      2.539158      0.341539
  H      -2.519646      0.870607      0.912406
  H       0.140228      2.314658      1.494554
  C      -0.317712      0.336554      2.360423
  H      -0.930293     -0.524741      2.055116
  H       0.710396     -0.030833      2.437789
  C      -0.779349      0.828018      3.732328
  H      -0.147821      1.664733      4.046212
  H      -1.792444      1.230897      3.645221
  C      -0.752579     -0.257141      4.804455
  H      -1.020062      0.146140      5.783075
  H      -1.457268     -1.059793      4.573594
  H       0.240303     -0.705214      4.891309
