21
Coordinates from ORCA-job 3 Relaxed Surface Scan Step 1
  O      37.641362    -24.351424      2.984512
  C      37.613336    -23.667969      4.124964
  O      38.445855    -22.877846      4.409720
  C      36.396683    -23.973874      4.976262
  C      36.024182    -25.472525      4.975818
  O      35.396870    -25.862069      3.792744
  H      36.700883    -23.698603      5.986216
  H      36.954753    -26.039212      5.105319
  H      35.979295    -25.692758      3.068220
  C      35.247459    -23.052147      4.543063
  H      34.390467    -23.167530      5.204987
  H      35.563398    -22.009160      4.584386
  H      34.920427    -23.280163      3.529897
  C      35.100115    -25.845039      6.122765
  H      34.906196    -26.917109      6.094288
  H      35.547785    -25.598606      7.086641
  H      34.141632    -25.333133      6.038743
  C      38.714065    -24.113818      2.095463
  H      38.552583    -24.764505      1.241882
  H      38.722903    -23.074039      1.777534
  H      39.663752    -24.347471      2.570577
21
Coordinates from ORCA-job 3 Relaxed Surface Scan Step 2
  O      37.581593    -24.260717      2.946470
  C      37.637847    -23.705827      4.154970
  O      38.564993    -23.065273      4.512881
  C      36.395687    -23.972590      4.979907
  C      36.041579    -25.477814      5.011836
  O      35.453218    -25.912084      3.824885
  H      36.673305    -23.670606      5.989340
  H      36.977097    -26.025845      5.184104
  H      36.027804    -25.710258      3.102247
  C      35.249727    -23.078882      4.488009
  H      34.381239    -23.173560      5.138284
  H      35.554983    -22.031297      4.493369
  H      34.944652    -23.348496      3.478793
  C      35.092478    -25.830876      6.144112
  H      34.909677    -26.905257      6.137497
  H      35.513511    -25.556033      7.112191
  H      34.131779    -25.330726      6.022513
  C      38.671346    -24.055010      2.070675
  H      38.428442    -24.580303      1.152422
  H      38.804845    -22.994630      1.870460
  H      39.588198    -24.452915      2.499036
21
Coordinates from ORCA-job 3 Relaxed Surface Scan Step 3
  O      37.527315    -24.155056      2.910443
  C      37.657185    -23.748631      4.171598
  O      38.665534    -23.288561      4.583512
  C      36.397096    -23.969688      4.981549
  C      36.064978    -25.480645      5.053875
  O      35.540522    -25.973230      3.859654
  H      36.660988    -23.641761      5.986359
  H      37.002962    -26.000889      5.288702
  H      36.107101    -25.734710      3.141851
  C      35.248411    -23.106818      4.448481
  H      34.383459    -23.169907      5.107367
  H      35.547563    -22.058294      4.398421
  H      34.940896    -23.426977      3.455338
  C      35.073521    -25.812025      6.155753
  H      34.912922    -26.889680      6.180990
  H      35.446534    -25.493561      7.130099
  H      34.109510    -25.337482      5.973592
  C      38.630627    -23.990854      2.042973
  H      38.315917    -24.367092      1.074730
  H      38.901522    -22.940683      1.965552
  H      39.489440    -24.552456      2.403159
21
Coordinates from ORCA-job 3 Relaxed Surface Scan Step 4
  O      37.482288    -24.032253      2.877676
  C      37.674789    -23.803968      4.174485
  O      38.743524    -23.556207      4.616257
  C      36.405019    -23.972216      4.981981
  C      36.091411    -25.484647      5.107526
  O      35.654916    -26.050440      3.909102
  H      36.666943    -23.616715      5.978042
  H      37.023890    -25.968501      5.424984
  H      36.214853    -25.783593      3.196348
  C      35.250641    -23.139267      4.419736
  H      34.401714    -23.153545      5.102047
  H      35.551089    -22.097653      4.292703
  H      34.919590    -23.520510      3.456341
  C      35.039288    -25.786477      6.160217
  H      34.908266    -26.865823      6.235442
  H      35.339182    -25.404580      7.137051
  H      34.076372    -25.353721      5.890109
  C      38.590626    -23.909329      2.010123
  H      38.218862    -24.111101      1.010564
  H      39.003611    -22.904672      2.059298
  H      39.367126    -24.623781      2.273967
21
Coordinates from ORCA-job 3 Relaxed Surface Scan Step 5
  O      37.457830    -23.858920      2.842640
  C      37.687051    -23.891817      4.149336
  O      38.782737    -23.920909      4.596175
  C      36.414105    -23.991545      4.966184
  C      36.105975    -25.494803      5.176263
  O      35.742391    -26.146330      3.994013
  H      36.685177    -23.593018      5.944148
  H      37.024801    -25.941713      5.572331
  H      36.341635    -25.942134      3.293463
  C      35.253467    -23.189231      4.377827
  H      34.428899    -23.138004      5.087900
  H      35.559852    -22.166179      4.155328
  H      34.886328    -23.640642      3.458739
  C      34.997542    -25.744037      6.183203
  H      34.886230    -26.817515      6.334896
  H      35.228318    -25.280556      7.143426
  H      34.044124    -25.359033      5.822788
  C      38.569196    -23.772859      1.975415
  H      38.166454    -23.736191      0.968281
  H      39.145552    -22.873893      2.181083
  H      39.216336    -24.639672      2.090563
21
Coordinates from ORCA-job 3 Relaxed Surface Scan Step 6
  O      37.501574    -23.532258      2.820606
  C      37.659454    -24.057981      4.017089
  O      38.694618    -24.501387      4.392809
  C      36.411026    -24.045739      4.886158
  C      36.082696    -25.510449      5.251174
  O      35.706530    -26.214539      4.095359
  H      36.736062    -23.551817      5.805879
  H      36.990541    -25.945219      5.673038
  H      36.461918    -26.601983      3.683667
  C      35.236779    -23.280256      4.281236
  H      34.430593    -23.182953      5.007703
  H      35.538082    -22.276815      3.983676
  H      34.849705    -23.792721      3.402788
  C      34.965895    -25.650624      6.270493
  H      34.861919    -26.699076      6.550190
  H      35.178876    -25.071180      7.170417
  H      34.012551    -25.322125      5.858189
  C      38.618902    -23.487865      1.961068
  H      38.278976    -23.015245      1.045201
  H      39.423916    -22.907658      2.406528
  H      38.983385    -24.491110      1.750730
21
Coordinates from ORCA-job 3 Relaxed Surface Scan Step 7
  O      37.569709    -23.361008      2.874715
  C      37.615529    -24.173501      3.908636
  O      38.544459    -24.881582      4.124928
  C      36.403077    -24.093125      4.826150
  C      36.081758    -25.522657      5.307071
  O      35.713279    -26.311430      4.205081
  H      36.763011    -23.525376      5.691386
  H      36.989499    -25.922658      5.759063
  H      36.484277    -26.692785      3.815669
  C      35.210207    -23.361685      4.212529
  H      34.424432    -23.226748      4.954772
  H      35.499622    -22.377559      3.850674
  H      34.797777    -23.926104      3.377209
  C      34.963796    -25.591996      6.332300
  H      34.872617    -26.614574      6.698639
  H      35.166335    -24.937048      7.181797
  H      34.007008    -25.311561      5.893373
  C      38.674105    -23.337742      1.997091
  H      38.435490    -22.609386      1.228829
  H      39.578479    -23.043891      2.525140
  H      38.829535    -24.316584      1.548947
21
Coordinates from ORCA-job 3 Relaxed Surface Scan Step 8
  O      37.669740    -23.232543      2.977274
  C      37.548382    -24.261226      3.789853
  O      38.322569    -25.162897      3.796646
  C      36.374565    -24.142203      4.750338
  C      36.078628    -25.533618      5.342044
  O      35.656624    -26.397424      4.323055
  H      36.751390    -23.500027      5.555129
  H      37.005850    -25.905883      5.779946
  H      36.414609    -26.704341      3.849362
  C      35.156924    -23.465327      4.116315
  H      34.385160    -23.291006      4.864606
  H      35.426607    -22.504820      3.683872
  H      34.732060    -24.093182      3.333481
  C      35.011105    -25.526510      6.422194
  H      34.935759    -26.521071      6.861659
  H      35.255329    -24.816124      7.214399
  H      34.034568    -25.272102      6.011696
  C      38.761757    -23.214092      2.083705
  H      38.671079    -22.295412      1.513251
  H      39.703627    -23.226102      2.627693
  H      38.727669    -24.073089      1.417482
21
Coordinates from ORCA-job 3 Relaxed Surface Scan Step 9
  O      37.781229    -23.158749      3.113523
  C      37.483112    -24.300780      3.698534
  O      38.080208    -25.305116      3.479025
  C      36.340917    -24.170535      4.690515
  C      36.083442    -25.533365      5.360364
  O      35.616268    -26.458694      4.423563
  H      36.705621    -23.471023      5.449667
  H      37.035914    -25.876171      5.773208
  H      36.335152    -26.699572      3.858089
  C      35.101132    -23.559159      4.025988
  H      34.330193    -23.356338      4.767777
  H      35.348979    -22.619764      3.535953
  H      34.684689    -24.243759      3.287535
  C      35.074853    -25.469952      6.494298
  H      35.019074    -26.442862      6.982297
  H      35.362650    -24.725357      7.238983
  H      34.078933    -25.229255      6.123628
  C      38.840671    -23.142234      2.181261
  H      38.911456    -22.121170      1.820727
  H      39.774171    -23.437424      2.655191
  H      38.635336    -23.817721      1.353875
21
Coordinates from ORCA-job 3 Relaxed Surface Scan Step 10
  O      37.893737    -23.139249      3.247751
  C      37.420039    -24.309070      3.624409
  O      37.831011    -25.336597      3.188590
  C      36.307201    -24.180766      4.645405
  C      36.097865    -25.522806      5.373250
  O      35.617958    -26.505252      4.508418
  H      36.651024    -23.439858      5.371044
  H      37.073717    -25.825549      5.769232
  H      36.281698    -26.677768      3.855907
  C      35.045125    -23.638212      3.958966
  H      34.272456    -23.418538      4.694135
  H      35.265521    -22.716040      3.422231
  H      34.645008    -24.369397      3.257429
  C      35.133315    -25.425312      6.542641
  H      35.103481    -26.381142      7.065338
  H      35.443388    -24.653411      7.249429
  H      34.122301    -25.204421      6.201214
  C      38.911454    -23.113458      2.269811
  H      39.146581    -22.067100      2.104429
  H      39.793788    -23.644551      2.619685
  H      38.567331    -23.570503      1.344685
21
Coordinates from ORCA-job 3 Relaxed Surface Scan Step 11
  O      37.998958    -23.162425      3.359190
  C      37.343929    -24.287937      3.547897
  O      37.567404    -25.274406      2.920811
  C      36.262987    -24.169229      4.601770
  C      36.125855    -25.495718      5.377595
  O      35.666927    -26.534259      4.572120
  H      36.588560    -23.395352      5.298027
  H      37.125645    -25.740023      5.759429
  H      36.255670    -26.632584      3.836558
  C      34.967040    -23.706687      3.919691
  H      34.200568    -23.482986      4.660217
  H      35.140487    -22.799415      3.339319
  H      34.584282    -24.480687      3.256079
  C      35.193134    -25.392410      6.572021
  H      35.208952    -26.333052      7.122153
  H      35.499313    -24.590943      7.246655
  H      34.166326    -25.213466      6.253844
  C      38.992006    -23.127645      2.355728
  H      39.395715    -22.120495      2.363926
  H      39.778287    -23.848117      2.568985
  H      38.561957    -23.351166      1.381984
21
Coordinates from ORCA-job 3 Relaxed Surface Scan Step 12
  O      38.091178    -23.221710      3.457717
  C      37.239094    -24.222616      3.458496
  O      37.282489    -25.108434      2.664269
  C      36.188153    -24.123935      4.544099
  C      36.171954    -25.436883      5.359626
  O      35.760811    -26.530197      4.603071
  H      36.489111    -23.316768      5.211309
  H      37.201026    -25.597577      5.709728
  H      36.246402    -26.554593      3.789842
  C      34.840619    -23.776098      3.899341
  H      34.086290    -23.585733      4.661457
  H      34.925737    -22.875350      3.288574
  H      34.493153    -24.591357      3.267517
  C      35.281295    -25.364814      6.587787
  H      35.377023    -26.290944      7.154269
  H      35.564601    -24.532247      7.233924
  H      34.234001    -25.255763      6.307386
  C      39.094495    -23.200619      2.463475
  H      39.676355    -22.301913      2.639746
  H      39.729829    -24.079868      2.541237
  H      38.650385    -23.171579      1.471130
21
Coordinates from ORCA-job 3 Relaxed Surface Scan Step 13
  O      38.153099    -23.329492      3.560336
  C      37.115922    -24.114024      3.365295
  O      37.007386    -24.823267      2.416338
  C      36.090658    -24.053174      4.477655
  C      36.234926    -25.343972      5.320001
  O      35.903924    -26.488966      4.597621
  H      36.356388    -23.213415      5.118960
  H      37.288143    -25.395464      5.627892
  H      36.286243    -26.459827      3.731964
  C      34.691410    -23.846489      3.893798
  H      33.958225    -23.713728      4.688199
  H      34.662273    -22.954547      3.265632
  H      34.393109    -24.699259      3.287925
  C      35.391976    -25.336781      6.582807
  H      35.596385    -26.241819      7.154618
  H      35.624714    -24.472419      7.206765
  H      34.328717    -25.328072      6.345446
  C      39.184977    -23.336226      2.595731
  H      39.929608    -22.627980      2.943882
  H      39.622863    -24.328104      2.509142
  H      38.803053    -23.031975      1.623992
21
Coordinates from ORCA-job 3 Relaxed Surface Scan Step 14
  O      38.188574    -23.489327      3.645730
  C      37.023761    -23.999922      3.298248
  O      36.805306    -24.442890      2.218788
  C      36.020716    -24.001491      4.434760
  C      36.289729    -25.257301      5.297560
  O      36.057161    -26.441357      4.592162
  H      36.249964    -23.135248      5.056750
  H      37.344023    -25.209463      5.594143
  H      36.434217    -26.409207      3.725939
  C      34.593786    -23.906822      3.898353
  H      33.882366    -23.794878      4.715566
  H      34.484431    -23.043789      3.240969
  H      34.330542    -24.796504      3.330559
  C      35.456986    -25.314125      6.565178
  H      35.751863    -26.186546      7.148121
  H      35.609772    -24.422228      7.174840
  H      34.396421    -25.410862      6.336269
  C      39.223679    -23.475963      2.686005
  H      40.079971    -23.016942      3.169265
  H      39.470240    -24.487736      2.371188
  H      38.930491    -22.896402      1.813608
21
Coordinates from ORCA-job 3 Relaxed Surface Scan Step 15
  O      38.203776    -23.713001      3.679128
  C      36.959737    -23.882447      3.256048
  O      36.682883    -23.957566      2.107650
  C      35.974912    -23.973464      4.407782
  C      36.314856    -25.199415      5.287664
  O      36.133642    -26.398749      4.587133
  H      36.164941    -23.087191      5.019615
  H      37.360884    -25.100382      5.587355
  H      36.787088    -26.503978      3.914075
  C      34.538913    -23.955185      3.892545
  H      33.833276    -23.871428      4.718169
  H      34.379661    -23.108679      3.226033
  H      34.316842    -24.865126      3.338558
  C      35.473531    -25.286502      6.548602
  H      35.828923    -26.114908      7.161246
  H      35.544409    -24.367432      7.132395
  H      34.427010    -25.474150      6.311991
  C      39.223665    -23.593927      2.712301
  H      40.150059    -23.458803      3.261458
  H      39.281361    -24.489713      2.097347
  H      39.043633    -22.736955      2.066905
21
Coordinates from ORCA-job 3 Relaxed Surface Scan Step 16
  O      38.195021    -23.857310      3.655751
  C      36.930080    -23.805528      3.257236
  O      36.633555    -23.673011      2.120024
  C      35.959761    -23.931924      4.418579
  C      36.343581    -25.138363      5.304103
  O      36.301038    -26.329280      4.564104
  H      36.120346    -23.030978      5.020406
  H      37.357842    -24.966802      5.666761
  H      37.104419    -26.447440      4.083303
  C      34.520495    -23.960424      3.911776
  H      33.817080    -23.864888      4.738014
  H      34.341724    -23.141300      3.218005
  H      34.316876    -24.894234      3.389446
  C      35.436664    -25.314238      6.509761
  H      35.831007    -26.107195      7.145257
  H      35.378225    -24.395943      7.096740
  H      34.430785    -25.601841      6.206659
  C      39.202608    -23.699415      2.681388
  H      40.149479    -23.766364      3.208008
  H      39.137589    -24.480607      1.926929
  H      39.115827    -22.731917      2.191752
21
Coordinates from ORCA-job 3 Relaxed Surface Scan Step 17
  O      38.180256    -23.972736      3.625667
  C      36.920835    -23.746823      3.271037
  O      36.625411    -23.438070      2.168429
  C      35.950379    -23.910107      4.429682
  C      36.362810    -25.094272      5.329621
  O      36.426996    -26.281315      4.585750
  H      36.072881    -22.996883      5.023584
  H      37.347784    -24.865377      5.738234
  H      37.259026    -26.336298      4.143696
  C      34.516420    -23.983259      3.909765
  H      33.802395    -23.905027      4.728453
  H      34.321791    -23.173440      3.210179
  H      34.345083    -24.926428      3.391278
  C      35.415840    -25.329270      6.493686
  H      35.831515    -26.096395      7.147030
  H      35.272274    -24.417782      7.076822
  H      34.444877    -25.680077      6.146513
  C      39.184334    -23.781114      2.652439
  H      40.127625    -24.007840      3.139462
  H      39.030821    -24.443991      1.803723
  H      39.184649    -22.752497      2.298949
21
Coordinates from ORCA-job 3 Relaxed Surface Scan Step 18
  O      38.162225    -24.065859      3.589977
  C      36.924033    -23.689930      3.292528
  O      36.647870    -23.211770      2.246772
  C      35.942610    -23.906004      4.435785
  C      36.371472    -25.071348      5.349156
  O      36.479905    -26.262673      4.619387
  H      36.015684    -22.985494      5.027131
  H      37.343611    -24.813760      5.772674
  H      37.302763    -26.271318      4.157127
  C      34.520982    -24.026391      3.886530
  H      33.788000    -23.964442      4.689561
  H      34.318246    -23.226873      3.177977
  H      34.388883    -24.979472      3.374025
  C      35.412814    -25.321277      6.500642
  H      35.838029    -26.071716      7.167033
  H      35.236394    -24.409106      7.073648
  H      34.456807    -25.700406      6.141839
  C      39.170443    -23.831717      2.629542
  H      40.095925    -24.195609      3.064808
  H      38.954417    -24.364404      1.706178
  H      39.252886    -22.769431      2.411678
21
Coordinates from ORCA-job 3 Relaxed Surface Scan Step 19
  O      38.140548    -24.135057      3.552054
  C      36.932143    -23.636368      3.321144
  O      36.685484    -23.017082      2.344087
  C      35.936013    -23.905405      4.441578
  C      36.376167    -25.056133      5.366483
  O      36.503801    -26.254975      4.654591
  H      35.956749    -22.983698      5.034669
  H      37.342722    -24.780525      5.793225
  H      37.305406    -26.232967      4.156657
  C      34.532798    -24.072426      3.854224
  H      33.777444    -24.038698      4.637866
  H      34.322405    -23.276000      3.144360
  H      34.446216    -25.028555      3.337507
  C      35.414636    -25.305201      6.516002
  H      35.844595    -26.044641      7.191509
  H      35.225436    -24.389708      7.079556
  H      34.464594    -25.698365      6.156315
  C      39.155613    -23.867328      2.606786
  H      40.054843    -24.345367      2.982495
  H      38.891724    -24.274456      1.633447
  H      39.314662    -22.796047      2.509444
21
Coordinates from ORCA-job 3 Relaxed Surface Scan Step 20
  O      38.115503    -24.188472      3.513512
  C      36.943074    -23.586381      3.356129
  O      36.731657    -22.850272      2.454587
  C      35.930384    -23.904346      4.448995
  C      36.378741    -25.043349      5.383627
  O      36.517627    -26.249408      4.688362
  H      35.897665    -22.985089      5.044048
  H      37.342233    -24.754417      5.810562
  H      37.296573    -26.206578      4.156792
  C      34.550757    -24.116355      3.817931
  H      33.772308    -24.119490      4.579307
  H      34.332238    -23.318090      3.112229
  H      34.513559    -25.069507      3.290014
  C      35.416472    -25.287373      6.533833
  H      35.848268    -26.020112      7.215396
  H      35.222774    -24.368588      7.090387
  H      34.468578    -25.687279      6.175749
  C      39.137160    -23.896099      2.582091
  H      40.004512    -24.470463      2.891952
  H      38.834659    -24.183427      1.577832
  H      39.369258    -22.833905      2.590668
21
Coordinates from ORCA-job 3 Relaxed Surface Scan Step 21
  O      38.085698    -24.232519      3.472021
  C      36.956637    -23.538214      3.397905
  O      36.786628    -22.701085      2.579519
  C      35.925706    -23.902421      4.458312
  C      36.380084    -25.030707      5.402951
  O      36.527069    -26.243849      4.724058
  H      35.836642    -22.988097      5.053408
  H      37.341273    -24.730596      5.829532
  H      37.282880    -26.186173      4.161226
  C      34.576185    -24.160703      3.777766
  H      33.774566    -24.209125      4.513105
  H      34.347120    -23.358314      3.079532
  H      34.594371    -25.105544      3.234436
  C      35.416931    -25.267133      6.554207
  H      35.848136    -25.995841      7.240451
  H      35.222964    -24.345092      7.105080
  H      34.469283    -25.669440      6.197955
  C      39.113186    -23.921281      2.552802
  H      39.941959    -24.581464      2.788265
  H      38.777517    -24.087938      1.531996
  H      39.419169    -22.883464      2.659473
21
Coordinates from ORCA-job 3 Relaxed Surface Scan Step 22
  O      38.047928    -24.269716      3.425807
  C      36.972919    -23.491095      3.447675
  O      36.853080    -22.563065      2.723844
  C      35.921158    -23.900308      4.468944
  C      36.380145    -25.016655      5.425856
  O      36.532818    -26.238363      4.765702
  H      35.768502    -22.993910      5.060958
  H      37.339929    -24.706626      5.850892
  H      37.263321    -26.170882      4.171181
  C      34.611793    -24.209775      3.730476
  H      33.788378    -24.321330      4.434155
  H      34.365138    -23.398838      3.047505
  H      34.697356    -25.136334      3.163054
  C      35.416740    -25.241169      6.579390
  H      35.842416    -25.972154      7.266615
  H      35.233030    -24.315839      7.128072
  H      34.464404    -25.635522      6.226536
  C      39.081006    -23.943977      2.517643
  H      39.861796    -24.682916      2.667384
  H      38.716936    -23.983536      1.493794
  H      39.465207    -22.946989      2.718516
21
Coordinates from ORCA-job 3 Relaxed Surface Scan Step 23
  O      37.999754    -24.301870      3.370967
  C      36.992383    -23.446904      3.505011
  O      36.935629    -22.437201      2.891324
  C      35.917499    -23.898327      4.480500
  C      36.379051    -25.001147      5.452991
  O      36.538554    -26.231662      4.812998
  H      35.699356    -23.001721      5.064561
  H      37.336378    -24.680563      5.878154
  H      37.243943    -26.158046      4.189267
  C      34.658354    -24.262178      3.680005
  H      33.816739    -24.444957      4.346238
  H      34.388921    -23.444954      3.012298
  H      34.819257    -25.163331      3.089038
  C      35.412541    -25.211726      6.606518
  H      35.828177    -25.948313      7.293869
  H      35.242311    -24.283568      7.154522
  H      34.454403    -25.592735      6.254351
  C      39.039369    -23.963640      2.474848
  H      39.758984    -24.774716      2.523484
  H      38.654045    -23.863147      1.463032
  H      39.508351    -23.028293      2.770026
21
Coordinates from ORCA-job 3 Relaxed Surface Scan Step 24
  O      37.941211    -24.327965      3.304604
  C      37.015149    -23.411118      3.564223
  O      37.037776    -22.333605      3.076844
  C      35.915567    -23.896899      4.491243
  C      36.378144    -24.983715      5.483080
  O      36.554193    -26.221904      4.864421
  H      35.638093    -23.009840      5.062475
  H      37.328654    -24.648677      5.914544
  H      37.236017    -26.141920      4.215459
  C      34.710119    -24.313424      3.635186
  H      33.853557    -24.549773      4.264584
  H      34.422992    -23.500581      2.968382
  H      34.939410    -25.195236      3.038273
  C      35.400955    -25.184469      6.629258
  H      35.805793    -25.922085      7.321899
  H      35.232954    -24.253532      7.172934
  H      34.443003    -25.559524      6.269922
  C      38.990659    -23.978792      2.424376
  H      39.634735    -24.849839      2.357532
  H      38.597269    -23.726578      1.442585
  H      39.547750    -23.129524      2.812177
