27
Coordinates from ORCA-job 4 Relaxed Surface Scan Step 1
  O      36.663143    -23.205573     -3.816862
  C      35.446283    -22.610126     -3.826365
  C      33.741684    -22.222725     -5.097392
  O      34.597290    -23.235810     -4.831754
  C      35.577425    -20.931855     -3.886798
  O      35.047302    -20.386131     -2.715176
  C      34.851391    -20.167723     -5.104253
  O      35.507686    -19.212568     -5.895721
  C      34.666436    -21.331745     -6.008262
  O      36.076574    -21.807156     -5.963281
  C      32.338829    -22.795351     -4.871082
  O      32.416043    -22.961625     -3.441641
  H      34.969922    -22.801380     -2.866994
  H      33.649247    -21.595195     -4.224625
  H      36.649427    -20.746919     -3.931870
  H      33.924293    -19.738141     -4.722689
  H      34.366824    -21.112926     -7.029505
  H      32.178761    -23.757237     -5.360234
  H      31.526807    -22.110118     -5.128636
  H      36.547734    -21.203271     -6.518956
  H      35.763863    -18.459555     -5.384083
  H      35.474329    -20.754395     -1.957321
  C      31.413511    -23.743688     -2.884992
  H      31.571169    -23.765931     -1.808284
  H      30.416986    -23.331996     -3.079317
  H      31.443389    -24.771000     -3.261332
  H      37.004554    -23.137794     -4.698072
27
Coordinates from ORCA-job 4 Relaxed Surface Scan Step 2
  O      36.848231    -23.138380     -3.887622
  C      35.601709    -22.609303     -3.806546
  C      33.816919    -22.321128     -5.010870
  O      34.724644    -23.296385     -4.733189
  C      35.645098    -20.938073     -3.887817
  O      35.192060    -20.408245     -2.677186
  C      34.797043    -20.216582     -5.038684
  O      35.348509    -19.202001     -5.831377
  C      34.623127    -21.376437     -5.955670
  O      36.026695    -21.782871     -6.048393
  C      32.407469    -22.879092     -4.876913
  O      32.308668    -22.927466     -3.451908
  H      35.215469    -22.812267     -2.808118
  H      33.704721    -21.709130     -4.129783
  H      36.699631    -20.703928     -4.025144
  H      33.868731    -19.855246     -4.595614
  H      34.213725    -21.151841     -6.938259
  H      32.298519    -23.875673     -5.308818
  H      31.637820    -22.219487     -5.289362
  H      36.439833    -21.124030     -6.587364
  H      35.583678    -18.449352     -5.309311
  H      35.716067    -20.729658     -1.959888
  C      31.221244    -23.632296     -2.954363
  H      31.254729    -23.569757     -1.868432
  H      30.269805    -23.209891     -3.296123
  H      31.254735    -24.687547     -3.243174
  H      37.112023    -23.071869     -4.795567
27
Coordinates from ORCA-job 4 Relaxed Surface Scan Step 3
  O      37.052167    -23.046719     -4.002170
  C      35.791277    -22.586387     -3.790444
  C      33.892999    -22.421103     -4.874921
  O      34.874322    -23.337184     -4.608417
  C      35.737772    -20.931727     -3.890838
  O      35.396500    -20.405840     -2.641864
  C      34.749006    -20.269432     -4.943918
  O      35.174012    -19.205784     -5.745837
  C      34.554561    -21.426344     -5.863827
  O      35.931100    -21.770280     -6.140493
  C      32.491343    -22.999896     -4.843883
  O      32.166096    -22.892820     -3.467650
  H      35.532224    -22.795180     -2.752008
  H      33.759946    -21.830290     -3.980363
  H      36.757482    -20.648488     -4.147761
  H      33.841589    -19.974637     -4.417530
  H      34.009539    -21.207566     -6.781160
  H      32.463299    -24.039738     -5.177114
  H      31.787166    -22.416035     -5.446334
  H      36.270034    -21.064930     -6.672384
  H      35.404637    -18.454199     -5.220336
  H      36.030001    -20.664926     -1.990711
  C      30.981822    -23.506627     -3.084472
  H      30.847833    -23.334517     -2.018431
  H      30.117744    -23.090652     -3.614610
  H      31.008174    -24.586522     -3.262412
  H      37.208256    -22.990109     -4.935604
27
Coordinates from ORCA-job 4 Relaxed Surface Scan Step 4
  O      37.409352    -22.820823     -4.428207
  C      36.180800    -22.559541     -3.902424
  C      34.071095    -22.684163     -4.580293
  O      35.227728    -23.423341     -4.531194
  C      35.886353    -20.943134     -3.895218
  O      35.823168    -20.492292     -2.573245
  C      34.595034    -20.417629     -4.623725
  O      34.651114    -19.250368     -5.390264
  C      34.346851    -21.536948     -5.571497
  O      35.604338    -21.695032     -6.244721
  C      32.732945    -23.394859     -4.596179
  O      31.946220    -22.590874     -3.745703
  H      36.213031    -22.829485     -2.845906
  H      33.968797    -22.221873     -3.603609
  H      36.755456    -20.515115     -4.392676
  H      33.798874    -20.320641     -3.888469
  H      33.542005    -21.351275     -6.282196
  H      32.849487    -24.401159     -4.183977
  H      32.277841    -23.476185     -5.588117
  H      35.725166    -20.913652     -6.764785
  H      34.869564    -18.503407     -4.853297
  H      36.651294    -20.629283     -2.139692
  C      30.619250    -22.977053     -3.614363
  H      30.139146    -22.291562     -2.919104
  H      30.086684    -22.933925     -4.570357
  H      30.532674    -23.994014     -3.217589
  H      37.326635    -22.730304     -5.368684
27
Coordinates from ORCA-job 4 Relaxed Surface Scan Step 5
  O      37.426216    -22.859719     -4.400205
  C      36.223796    -22.509819     -3.851585
  C      34.041045    -22.674731     -4.404405
  O      35.233075    -23.363758     -4.396337
  C      36.016132    -20.912903     -3.966066
  O      36.268618    -20.324015     -2.722870
  C      34.640900    -20.401338     -4.467067
  O      34.617816    -19.212293     -5.196968
  C      34.208313    -21.502427     -5.380586
  O      35.295812    -21.730717     -6.273093
  C      32.756478    -23.461524     -4.504280
  O      31.833683    -22.600197     -3.886756
  H      36.284649    -22.709681     -2.780616
  H      33.911999    -22.242615     -3.413031
  H      36.763091    -20.583837     -4.685730
  H      33.963329    -20.308164     -3.619923
  H      33.292298    -21.264142     -5.920482
  H      32.848496    -24.402556     -3.953831
  H      32.460134    -23.689166     -5.533197
  H      35.366820    -20.961825     -6.819847
  H      34.952265    -18.498039     -4.675205
  H      37.173892    -20.449093     -2.482372
  C      30.509590    -23.017358     -3.910449
  H      29.914912    -22.272749     -3.385443
  H      30.131321    -23.108091     -4.933998
  H      30.382495    -23.982484     -3.409118
  H      37.313726    -22.854696     -5.342034
27
Coordinates from ORCA-job 4 Relaxed Surface Scan Step 6
  O      37.411838    -22.949084     -3.929900
  C      36.161217    -22.428107     -3.714604
  C      33.983570    -22.607805     -4.331482
  O      35.214977    -23.248625     -4.348833
  C      36.145805    -20.911274     -4.122882
  O      36.763866    -20.168694     -3.114259
  C      34.740945    -20.347933     -4.364989
  O      34.660711    -19.119592     -5.016124
  C      34.075908    -21.381886     -5.234353
  O      34.909364    -21.650281     -6.345849
  C      32.758011    -23.463507     -4.538861
  O      31.746706    -22.682014     -3.959363
  H      35.989258    -22.459614     -2.635928
  H      33.811889    -22.241635     -3.318939
  H      36.705821    -20.818482     -5.052409
  H      34.221074    -20.274232     -3.408160
  H      33.086137    -21.046733     -5.543842
  H      32.868720    -24.419658     -4.018751
  H      32.551627    -23.664141     -5.594891
  H      34.922895    -20.872149     -6.883295
  H      35.182411    -18.477355     -4.557325
  H      37.665225    -20.441316     -3.027564
  C      30.455976    -23.179225     -4.079989
  H      29.782589    -22.486817     -3.579155
  H      30.151909    -23.265943     -5.128267
  H      30.357882    -24.163291     -3.609967
  H      37.504567    -23.128541     -4.855514
27
Coordinates from ORCA-job 4 Relaxed Surface Scan Step 7
  O      37.363825    -22.993619     -3.775800
  C      36.154078    -22.359615     -3.629381
  C      33.917075    -22.512097     -4.185918
  O      35.160161    -23.146209     -4.211501
  C      36.227110    -20.929033     -4.211519
  O      37.030567    -20.129087     -3.397633
  C      34.848934    -20.287120     -4.315379
  O      34.818665    -19.070839     -4.989949
  C      33.975695    -21.270313     -5.061380
  O      34.555718    -21.595227     -6.302067
  C      32.762524    -23.430749     -4.503416
  O      31.642724    -22.740017     -4.030882
  H      35.974589    -22.272797     -2.553902
  H      33.710106    -22.179995     -3.165376
  H      36.647207    -20.998678     -5.216353
  H      34.454637    -20.150716     -3.304158
  H      32.974149    -20.856930     -5.183966
  H      32.890818    -24.383933     -3.981558
  H      32.686615    -23.630490     -5.576480
  H      34.578669    -20.808384     -6.826347
  H      35.473741    -18.492424     -4.627020
  H      37.900347    -20.497745     -3.352111
  C      30.417749    -23.348204     -4.267038
  H      29.641400    -22.713489     -3.844979
  H      30.226794    -23.469554     -5.338357
  H      30.359344    -24.333632     -3.793000
  H      37.437662    -23.297039     -4.670025
27
Coordinates from ORCA-job 4 Relaxed Surface Scan Step 8
  O      37.314121    -23.030886     -3.680914
  C      36.149298    -22.310233     -3.564388
  C      33.856776    -22.423809     -4.034263
  O      35.102395    -23.062657     -4.080007
  C      36.268129    -20.964721     -4.283732
  O      37.209969    -20.149242     -3.656453
  C      34.935540    -20.234439     -4.288103
  O      34.964278    -19.064303     -5.041593
  C      33.883587    -21.157291     -4.877062
  O      34.206849    -21.488374     -6.198252
  C      32.771371    -23.395525     -4.436983
  O      31.563028    -22.784046     -4.114305
  H      35.999508    -22.127923     -2.495764
  H      33.636101    -22.129256     -3.002793
  H      36.553294    -21.165185     -5.319753
  H      34.666592    -20.004523     -3.251344
  H      32.906024    -20.675408     -4.820657
  H      32.903409    -24.328787     -3.880403
  H      32.834782    -23.619265     -5.505053
  H      34.279155    -20.684979     -6.692518
  H      35.716299    -18.549193     -4.787438
  H      38.045094    -20.592580     -3.631173
  C      30.422664    -23.491565     -4.465296
  H      29.557362    -22.907969     -4.158050
  H      30.367849    -23.657395     -5.546149
  H      30.382828    -24.465114     -3.965003
  H      37.334599    -23.433270     -4.538046
27
Coordinates from ORCA-job 4 Relaxed Surface Scan Step 9
  O      37.277134    -23.053752     -3.611810
  C      36.149567    -22.272658     -3.510887
  C      33.812316    -22.359453     -3.877454
  O      35.057563    -23.005081     -3.943819
  C      36.277242    -21.010356     -4.349892
  O      37.319692    -20.200272     -3.901565
  C      34.995958    -20.200722     -4.281647
  O      35.046908    -19.103340     -5.140288
  C      33.804817    -21.064287     -4.686590
  O      33.871506    -21.366536     -6.043953
  C      32.783817    -23.369641     -4.343911
  O      31.521953    -22.815338     -4.188445
  H      36.047623    -22.003847     -2.454684
  H      33.591523    -22.101276     -2.835424
  H      36.435797    -21.318278     -5.387998
  H      34.858756    -19.867268     -3.246735
  H      32.880970    -20.528020     -4.458449
  H      32.893235    -24.277422     -3.741298
  H      32.981399    -23.626146     -5.386788
  H      34.004743    -20.559476     -6.519639
  H      35.857856    -18.637256     -4.996782
  H      38.124157    -20.697701     -3.890731
  C      30.472523    -23.579017     -4.676116
  H      29.547755    -23.036057     -4.492450
  H      30.569067    -23.753710     -5.752477
  H      30.412830    -24.550251     -4.172748
  H      37.234195    -23.540772     -4.422916
27
Coordinates from ORCA-job 4 Relaxed Surface Scan Step 10
  O      37.248099    -23.060933     -3.529387
  C      36.147474    -22.238429     -3.456974
  C      33.778707    -22.314634     -3.739142
  O      35.025072    -22.964217     -3.805771
  C      36.268928    -21.063336     -4.406752
  O      37.377148    -20.268882     -4.118679
  C      35.037506    -20.186150     -4.303406
  O      35.080950    -19.179180     -5.270407
  C      33.746853    -20.989423     -4.516268
  O      33.567463    -21.244591     -5.866734
  C      32.797563    -23.349085     -4.265175
  O      31.506185    -22.856340     -4.210477
  H      36.087516    -21.883186     -2.423149
  H      33.547418    -22.092784     -2.691425
  H      36.324456    -21.466866     -5.423427
  H      35.022858    -19.749606     -3.298563
  H      32.905097    -20.406482     -4.133319
  H      32.901189    -24.252587     -3.654743
  H      33.083499    -23.597008     -5.288554
  H      33.758799    -20.452191     -6.347236
  H      35.922259    -18.748230     -5.226540
  H      38.155438    -20.806339     -4.103422
  C      30.550790    -23.623180     -4.858109
  H      29.586761    -23.134305     -4.734087
  H      30.765325    -23.710158     -5.927876
  H      30.487097    -24.631750     -4.434365
  H      37.150452    -23.628061     -4.281506
27
Coordinates from ORCA-job 4 Relaxed Surface Scan Step 11
  O      37.229471    -23.047706     -3.425914
  C      36.143569    -22.202347     -3.399832
  C      33.752676    -22.289982     -3.630893
  O      35.005980    -22.934045     -3.669835
  C      36.253492    -21.120421     -4.451735
  O      37.400330    -20.344497     -4.298769
  C      35.062696    -20.191217     -4.349316
  O      35.077384    -19.285251     -5.414487
  C      33.707810    -20.932300     -4.375101
  O      33.298439    -21.123417     -5.682467
  C      32.820410    -23.339794     -4.221607
  O      31.504199    -22.923058     -4.184740
  H      36.111357    -21.760423     -2.398519
  H      33.488595    -22.106562     -2.584605
  H      36.235162    -21.611992     -5.430921
  H      35.151695    -19.657837     -3.397058
  H      32.972791    -20.311270     -3.856091
  H      32.956590    -24.261205     -3.645549
  H      33.145943    -23.530916     -5.244833
  H      33.546883    -20.364104     -6.189366
  H      35.929609    -18.876109     -5.456613
  H      38.159296    -20.907941     -4.260341
  C      30.633194    -23.630670     -4.996825
  H      29.636114    -23.217099     -4.860324
  H      30.909368    -23.540268     -6.051764
  H      30.607222    -24.694253     -4.733267
  H      37.090629    -23.693252     -4.104722
27
Coordinates from ORCA-job 4 Relaxed Surface Scan Step 12
  O      37.225266    -23.010367     -3.309965
  C      36.141919    -22.161027     -3.339537
  C      33.734431    -22.286785     -3.549122
  O      35.001308    -22.910522     -3.529303
  C      36.233864    -21.178972     -4.485386
  O      37.401216    -20.420646     -4.448662
  C      35.071224    -20.214580     -4.408259
  O      35.039373    -19.416151     -5.556340
  C      33.684189    -20.896324     -4.257292
  O      33.069473    -21.013306     -5.491394
  C      32.860749    -23.343510     -4.215463
  O      31.522467    -23.011260     -4.148565
  H      36.127501    -21.632772     -2.380306
  H      33.409510    -22.146605     -2.514856
  H      36.164030    -21.753587     -5.416203
  H      35.243695    -19.592052     -3.524867
  H      33.071776    -20.249675     -3.624410
  H      33.052683    -24.290899     -3.701629
  H      33.193647    -23.448303     -5.248743
  H      33.358783    -20.300850     -6.042687
  H      35.889424    -19.018222     -5.676904
  H      38.148393    -20.996542     -4.376554
  C      30.708039    -23.602282     -5.100337
  H      29.686807    -23.274012     -4.917638
  H      30.997104    -23.302946     -6.111869
  H      30.736595    -24.696258     -5.036399
  H      37.057436    -23.729479     -3.902805
27
Coordinates from ORCA-job 4 Relaxed Surface Scan Step 13
  O      37.220693    -22.966496     -3.199257
  C      36.138292    -22.118666     -3.281006
  C      33.717842    -22.286436     -3.497820
  O      34.996200    -22.881658     -3.387517
  C      36.213398    -21.236442     -4.506671
  O      37.396050    -20.504982     -4.568878
  C      35.075329    -20.242767     -4.464878
  O      34.992420    -19.549345     -5.676018
  C      33.679003    -20.863089     -4.158112
  O      32.895718    -20.895246     -5.300310
  C      32.912434    -23.334412     -4.256040
  O      31.557389    -23.089712     -4.143808
  H      36.142891    -21.511519     -2.369428
  H      33.305154    -22.196408     -2.491292
  H      36.101905    -21.883135     -5.384838
  H      35.315989    -19.545035     -3.657739
  H      33.197398    -20.204465     -3.432703
  H      33.165554    -24.306930     -3.822860
  H      33.233590    -23.336092     -5.298927
  H      33.205173    -20.232833     -5.900992
  H      35.831951    -19.155083     -5.863291
  H      38.132393    -21.088997     -4.459276
  C      30.765579    -23.583581     -5.166937
  H      29.730732    -23.337400     -4.937517
  H      31.028872    -23.130782     -6.126922
  H      30.849699    -24.672978     -5.256823
  H      37.029254    -23.743445     -3.705633
27
Coordinates from ORCA-job 4 Relaxed Surface Scan Step 14
  O      36.488366    -23.454249     -3.563918
  C      36.015704    -22.178221     -3.310768
  C      33.593584    -21.938054     -3.266169
  O      34.820772    -22.167840     -2.611219
  C      35.927247    -21.350714     -4.588000
  O      37.187472    -20.908189     -4.989563
  C      35.060867    -20.140948     -4.318822
  O      35.034966    -19.282707     -5.415490
  C      33.614379    -20.570826     -4.004241
  O      32.862352    -20.659121     -5.166580
  C      33.182325    -23.137684     -4.123474
  O      31.804640    -23.162559     -4.225264
  H      36.760886    -21.721166     -2.664377
  H      32.861867    -21.893740     -2.465570
  H      35.469227    -21.936741     -5.390546
  H      35.471824    -19.624665     -3.446065
  H      33.181616    -19.817644     -3.341098
  H      33.540037    -24.039129     -3.610691
  H      33.637236    -23.104150     -5.116275
  H      33.117478    -19.948567     -5.737795
  H      35.920595    -19.149746     -5.722098
  H      37.750283    -21.647018     -5.167379
  C      31.285269    -23.881510     -5.289180
  H      30.200386    -23.831118     -5.227938
  H      31.601251    -23.458544     -6.247563
  H      31.585611    -24.935279     -5.253947
  H      35.854663    -23.957809     -4.051465
27
Coordinates from ORCA-job 4 Relaxed Surface Scan Step 15
  O      36.591283    -23.396844     -3.412141
  C      36.013935    -22.149695     -3.245121
  C      33.584149    -21.945197     -3.295635
  O      34.786491    -22.216027     -2.609038
  C      35.929811    -21.401770     -4.568466
  O      37.192849    -20.984312     -4.985913
  C      35.069214    -20.171592     -4.385173
  O      34.991549    -19.428969     -5.561468
  C      33.633032    -20.534157     -3.929654
  O      32.727626    -20.476848     -4.976735
  C      33.191643    -23.072633     -4.257947
  O      31.813790    -23.186456     -4.261730
  H      36.693372    -21.605266     -2.592122
  H      32.820790    -21.954589     -2.524216
  H      35.484376    -22.043236     -5.333754
  H      35.538060    -19.572228     -3.598979
  H      33.348013    -19.816769     -3.156190
  H      33.642925    -24.001977     -3.887095
  H      33.556364    -22.894950     -5.271287
  H      33.018794    -19.820109     -5.593135
  H      35.865968    -19.285359     -5.894062
  H      37.767619    -21.731060     -5.068712
  C      31.270399    -23.906598     -5.312351
  H      30.191262    -23.931221     -5.177830
  H      31.491438    -23.436985     -6.276044
  H      31.641060    -24.938229     -5.333690
  H      35.975089    -23.994861     -3.807007
27
Coordinates from ORCA-job 4 Relaxed Surface Scan Step 16
  O      36.720001    -23.310283     -3.275351
  C      36.011242    -22.119897     -3.191558
  C      33.579307    -21.967674     -3.356326
  O      34.752036    -22.346063     -2.663355
  C      35.945658    -21.447114     -4.552016
  O      37.213963    -21.060209     -4.975470
  C      35.089319    -20.202301     -4.452452
  O      34.927903    -19.595567     -5.696773
  C      33.690369    -20.510640     -3.849678
  O      32.659470    -20.268744     -4.744886
  C      33.172532    -22.972880     -4.441696
  O      31.827138    -23.263682     -4.281034
  H      36.567918    -21.470785     -2.513292
  H      32.791763    -22.009492     -2.611254
  H      35.505556    -22.139584     -5.273681
  H      35.610301    -19.518908     -3.776105
  H      33.566383    -19.868821     -2.974682
  H      33.773518    -23.882680     -4.323183
  H      33.353253    -22.577492     -5.442831
  H      32.975516    -19.711761     -5.441807
  H      35.780386    -19.410551     -6.063540
  H      37.772514    -21.821862     -5.033941
  C      31.238515    -23.954288     -5.327224
  H      30.196047    -24.129234     -5.070148
  H      31.277127    -23.381423     -6.259467
  H      31.721288    -24.923902     -5.497257
  H      36.111877    -24.032099     -3.226486
27
Coordinates from ORCA-job 4 Relaxed Surface Scan Step 17
  O      36.456923    -23.463413     -3.483985
  C      35.910142    -22.218932     -3.221676
  C      33.515713    -21.891413     -3.391131
  O      34.647278    -22.329304     -2.668772
  C      35.914296    -21.465841     -4.539999
  O      37.209055    -21.125968     -4.927917
  C      35.099289    -20.188906     -4.466817
  O      34.876768    -19.692746     -5.754437
  C      33.730484    -20.417458     -3.766520
  O      32.659829    -19.950124     -4.508696
  C      33.127267    -22.818495     -4.550930
  O      31.834878    -23.278886     -4.335855
  H      36.535708    -21.686780     -2.499381
  H      32.691553    -21.939267     -2.686964
  H      35.464502    -22.114134     -5.293317
  H      35.675679    -19.461324     -3.890232
  H      33.764875    -19.877609     -2.818271
  H      33.826786    -23.659252     -4.586653
  H      33.178866    -22.293469     -5.509108
  H      32.973967    -19.591026     -5.325981
  H      35.708511    -19.544091     -6.180056
  H      37.717997    -21.914453     -5.046323
  C      31.322854    -24.082551     -5.339967
  H      30.315304    -24.377650     -5.054311
  H      31.272250    -23.551667     -6.297115
  H      31.924668    -24.987723     -5.481798
  H      36.475457    -23.975454     -2.689283
27
Coordinates from ORCA-job 4 Relaxed Surface Scan Step 18
  O      37.231241    -22.994460     -3.193284
  C      36.126304    -22.185482     -3.288162
  C      33.774071    -22.304900     -3.644674
  O      35.025540    -22.950702     -3.639993
  C      36.397722    -21.147538     -4.364489
  O      37.304041    -20.190300     -3.910304
  C      35.098733    -20.456633     -4.818477
  O      34.736353    -20.831732     -6.115004
  C      33.940556    -20.782138     -3.877532
  O      32.767079    -20.151209     -4.249766
  C      32.953704    -23.065105     -4.676246
  O      31.618245    -22.675461     -4.590997
  H      35.942405    -21.687555     -2.327915
  H      33.284504    -22.440709     -2.675545
  H      36.796432    -21.697976     -5.220008
  H      35.262338    -19.379124     -4.767415
  H      34.220752    -20.345613     -2.917417
  H      33.059142    -24.130197     -4.449180
  H      33.352225    -22.893321     -5.678292
  H      32.258877    -20.694205     -4.832056
  H      35.291266    -20.402745     -6.746238
  H      38.107868    -20.620068     -3.658005
  C      30.736547    -23.406642     -5.376466
  H      29.737794    -23.003397     -5.224395
  H      30.987983    -23.334358     -6.439574
  H      30.735192    -24.464104     -5.093592
  H      37.083988    -23.662262     -2.540470
27
Coordinates from ORCA-job 4 Relaxed Surface Scan Step 19
  O      37.176931    -22.968613     -3.175023
  C      36.109323    -22.102683     -3.195559
  C      33.694110    -22.248440     -3.400032
  O      34.937723    -22.843370     -3.094595
  C      36.161609    -21.356049     -4.515851
  O      37.332396    -20.611281     -4.628251
  C      34.952590    -20.430672     -4.698676
  O      34.414221    -20.539388     -5.983476
  C      33.858120    -20.742946     -3.670133
  O      32.663324    -20.117876     -3.962151
  C      33.081140    -23.070912     -4.526236
  O      31.767163    -22.659010     -4.736064
  H      36.185838    -21.401344     -2.356450
  H      33.043127    -22.348772     -2.530494
  H      36.114272    -22.126296     -5.290712
  H      35.286178    -19.406602     -4.521008
  H      34.200102    -20.310941     -2.728667
  H      33.112089    -24.121709     -4.221269
  H      33.667687    -22.970043     -5.442457
  H      32.209519    -20.594100     -4.642446
  H      34.993337    -20.132549     -6.608347
  H      38.074217    -21.186979     -4.512273
  C      31.060162    -23.388570     -5.683293
  H      30.057769    -22.971228     -5.749062
  H      31.531685    -23.330491     -6.669326
  H      30.983187    -24.442301     -5.396968
  H      37.163080    -23.474770     -2.376676
27
Coordinates from ORCA-job 4 Relaxed Surface Scan Step 20
  O      37.146994    -22.984555     -3.240125
  C      36.104142    -22.087439     -3.200854
  C      33.683134    -22.229790     -3.246567
  O      34.935834    -22.774761     -2.886817
  C      36.035818    -21.429514     -4.571486
  O      37.197517    -20.703376     -4.822301
  C      34.818288    -20.504219     -4.715824
  O      34.148911    -20.717340     -5.927948
  C      33.834384    -20.735924     -3.566941
  O      32.627962    -20.093576     -3.748356
  C      33.114470    -23.100284     -4.363805
  O      31.897898    -22.583223     -4.796427
  H      36.302045    -21.327800     -2.436305
  H      33.026711    -22.306894     -2.380113
  H      35.929100    -22.243320     -5.292737
  H      35.170473    -19.472920     -4.659308
  H      34.281422    -20.287838     -2.678763
  H      32.987656    -24.115370     -3.972057
  H      33.819524    -23.154261     -5.193799
  H      32.150909    -20.534754     -4.438210
  H      34.644227    -20.337513     -6.636126
  H      37.943493    -21.278729     -4.734324
  C      31.327081    -23.238479     -5.879419
  H      30.377809    -22.756024     -6.102156
  H      31.969106    -23.178985     -6.763090
  H      31.138470    -24.292947     -5.653414
  H      37.217522    -23.428101     -2.408219
27
Coordinates from ORCA-job 4 Relaxed Surface Scan Step 21
  O      37.085614    -23.025553     -3.333089
  C      36.081996    -22.087461     -3.227974
  C      33.670778    -22.208408     -3.113379
  O      34.936369    -22.702823     -2.726879
  C      35.903425    -21.488161     -4.622824
  O      37.042113    -20.763640     -4.970555
  C      34.667287    -20.576335     -4.740191
  O      33.899602    -20.891594     -5.876527
  C      33.812775    -20.726704     -3.481533
  O      32.615379    -20.042114     -3.512069
  C      33.118729    -23.116584     -4.218668
  O      32.053703    -22.506329     -4.866833
  H      36.393720    -21.296016     -2.538227
  H      33.024823    -22.265137     -2.238942
  H      35.767573    -22.327704     -5.306572
  H      35.015119    -19.544045     -4.799374
  H      34.381282    -20.277736     -2.666967
  H      32.811849    -24.068842     -3.771264
  H      33.912418    -23.341876     -4.930693
  H      32.080283    -20.420145     -4.198331
  H      34.324422    -20.532228     -6.639417
  H      37.795832    -21.333183     -4.917594
  C      31.640985    -23.115425     -6.041179
  H      30.799227    -22.550034     -6.435562
  H      32.441482    -23.119055     -6.785544
  H      31.316423    -24.146794     -5.865971
  H      37.237693    -23.424007     -2.489339
27
Coordinates from ORCA-job 4 Relaxed Surface Scan Step 22
  O      37.006617    -23.004592     -4.041730
  C      36.062879    -22.102423     -3.605091
  C      33.727373    -22.259436     -2.986563
  O      35.026918    -22.797370     -2.984502
  C      35.622989    -21.303413     -4.828853
  O      36.695668    -20.553135     -5.315557
  C      34.464794    -20.352359     -4.510421
  O      33.458135    -20.346452     -5.490552
  C      33.802506    -20.738654     -3.190467
  O      32.574944    -20.119856     -3.027588
  C      32.827658    -23.047589     -3.929355
  O      33.384753    -23.167832     -5.193763
  H      36.520594    -21.420825     -2.877651
  H      33.317030    -22.406572     -1.986491
  H      35.281476    -22.026686     -5.563037
  H      34.878504    -19.346913     -4.407486
  H      34.448274    -20.376030     -2.389460
  H      31.850734    -22.554367     -3.970957
  H      32.675122    -24.042577     -3.496226
  H      32.184502    -19.999613     -3.881974
  H      33.805055    -20.027362     -6.308853
  H      37.403705    -21.141898     -5.531872
  C      32.547689    -23.694702     -6.162540
  H      33.111009    -23.767482     -7.091023
  H      32.195432    -24.696191     -5.892032
  H      31.676034    -23.054162     -6.331928
  H      37.280508    -23.549442     -3.319522
27
Coordinates from ORCA-job 4 Relaxed Surface Scan Step 23
  O      36.783639    -23.167827     -4.182769
  C      35.971687    -22.184058     -3.664027
  C      33.677218    -22.181924     -2.953649
  O      34.948798    -22.773460     -2.913089
  C      35.548823    -21.295571     -4.855244
  O      36.640938    -20.490109     -5.199123
  C      34.359159    -20.370109     -4.528210
  O      33.213652    -20.516392     -5.346301
  C      33.872435    -20.660757     -3.126009
  O      32.783933    -19.875170     -2.793932
  C      32.828084    -22.942096     -3.975347
  O      33.535035    -23.143608     -5.159343
  H      36.557401    -21.551877     -2.987983
  H      33.219160    -22.331564     -1.976030
  H      35.286629    -21.953437     -5.673934
  H      34.720885    -19.342477     -4.585523
  H      34.658086    -20.392812     -2.420725
  H      31.890063    -22.410771     -4.158707
  H      32.580181    -23.914048     -3.534503
  H      32.214540    -19.810336     -3.547296
  H      33.424945    -20.315492     -6.244214
  H      37.364359    -21.047648     -5.444564
  C      32.812622    -23.746138     -6.174206
  H      33.478622    -23.888505     -7.023926
  H      32.427563    -24.725887     -5.871267
  H      31.967396    -23.125424     -6.490279
  H      37.065049    -23.740441     -3.485293
27
Coordinates from ORCA-job 4 Relaxed Surface Scan Step 24
  O      36.208520    -23.430598     -4.583813
  C      35.709875    -22.361720     -3.869172
  C      33.506462    -22.034146     -3.020019
  O      34.673282    -22.809029     -3.022340
  C      35.424986    -21.214591     -4.909333
  O      36.586426    -20.431812     -4.972620
  C      34.285508    -20.243151     -4.498141
  O      33.018386    -20.271425     -5.156810
  C      33.980090    -20.545239     -3.061555
  O      33.195446    -19.554496     -2.506642
  C      32.657416    -22.659535     -4.143905
  O      33.403703    -22.735801     -5.352634
  H      36.491400    -21.971294     -3.213681
  H      32.993996    -22.208423     -2.073809
  H      35.242310    -21.667617     -5.874583
  H      34.690645    -19.240080     -4.603971
  H      34.892587    -20.533574     -2.469089
  H      31.713934    -22.142636     -4.309653
  H      32.437145    -23.672950     -3.806056
  H      32.487734    -19.349714     -3.101688
  H      33.011006    -20.959957     -5.802899
  H      37.294717    -20.952844     -5.318778
  C      33.362393    -23.958292     -6.022436
  H      33.995154    -23.873337     -6.903289
  H      33.748617    -24.763439     -5.396765
  H      32.345306    -24.204156     -6.341782
  H      36.473859    -24.108080     -3.980029
