26
Coordinates from ORCA-job 9 Relaxed Surface Scan Step 1
  C      35.158931    -21.756053     -2.811074
  C      33.394388    -21.752302     -4.388196
  O      34.275339    -22.496539     -3.587920
  C      36.026133    -20.861876     -3.688409
  O      36.849684    -20.018668     -2.931688
  C      35.147837    -19.978547     -4.552763
  O      35.903396    -19.246973     -5.468062
  C      34.154539    -20.828702     -5.335111
  O      34.812563    -21.594191     -6.294297
  C      32.473505    -22.716942     -5.126248
  O      31.343592    -23.061544     -4.391814
  H      34.627525    -21.143201     -2.074081
  H      32.764365    -21.122173     -3.748493
  H      36.621798    -21.493280     -4.351467
  H      34.592052    -19.303360     -3.892154
  H      33.431914    -20.158141     -5.812380
  H      33.049875    -23.596244     -5.421779
  H      32.110768    -22.236015     -6.032853
  H      35.375446    -21.023475     -6.797218
  H      36.606684    -18.813996     -5.006512
  H      37.576403    -20.500519     -2.570030
  C      31.490815    -24.053519     -3.428020
  H      32.138125    -23.740358     -2.606804
  H      30.501093    -24.274551     -3.031852
  H      31.905908    -24.970303     -3.859463
  H      35.778234    -22.464669     -2.261026
26
Coordinates from ORCA-job 9 Relaxed Surface Scan Step 2
  C      35.262777    -21.838861     -2.863489
  C      33.459695    -21.855066     -4.396059
  O      34.399114    -22.588343     -3.653943
  C      36.050850    -20.844337     -3.708895
  O      36.832868    -19.989067     -2.922037
  C      35.102311    -19.977311     -4.512802
  O      35.792095    -19.158708     -5.405857
  C      34.146519    -20.850681     -5.315029
  O      34.830254    -21.536191     -6.315845
  C      32.559090    -22.831521     -5.153753
  O      31.342163    -23.053401     -4.516578
  H      34.720059    -21.303893     -2.076078
  H      32.820179    -21.284180     -3.712087
  H      36.673490    -21.400309     -4.413324
  H      34.520369    -19.369691     -3.810359
  H      33.376248    -20.205304     -5.751169
  H      33.109568    -23.761937     -5.310033
  H      32.316776    -22.420493     -6.130763
  H      35.345620    -20.912579     -6.806691
  H      36.474589    -18.701437     -4.936664
  H      37.595998    -20.439905     -2.597375
  C      31.365820    -23.908383     -3.421664
  H      31.968757    -23.513274     -2.599814
  H      30.341286    -24.031214     -3.075367
  H      31.764652    -24.891793     -3.691087
  H      35.939765    -22.538263     -2.372953
26
Coordinates from ORCA-job 9 Relaxed Surface Scan Step 3
  C      35.377308    -21.877107     -2.897730
  C      33.529096    -21.944003     -4.369780
  O      34.531802    -22.648889     -3.685991
  C      36.087334    -20.819911     -3.735219
  O      36.854629    -19.952512     -2.947016
  C      35.066669    -19.975782     -4.473329
  O      35.679788    -19.090943     -5.359143
  C      34.129360    -20.871267     -5.273331
  O      34.816234    -21.482019     -6.319696
  C      32.654113    -22.944602     -5.134573
  O      31.362625    -23.034878     -4.622292
  H      34.828249    -21.390060     -2.083411
  H      32.887517    -21.430756     -3.644053
  H      36.709931    -21.321243     -4.479387
  H      34.480971    -19.424509     -3.728765
  H      33.309755    -20.256181     -5.660806
  H      33.156874    -23.914188     -5.126133
  H      32.551142    -22.633778     -6.170381
  H      35.279573    -20.813157     -6.802745
  H      36.355231    -18.615720     -4.897638
  H      37.650485    -20.374754     -2.665332
  C      31.217515    -23.800749     -3.473799
  H      31.800211    -23.406820     -2.635282
  H      30.164831    -23.792488     -3.197527
  H      31.527392    -24.837300     -3.642775
  H      36.102279    -22.552527     -2.443582
26
Coordinates from ORCA-job 9 Relaxed Surface Scan Step 4
  C      35.492977    -21.896731     -2.927040
  C      33.601209    -22.026196     -4.327825
  O      34.669438    -22.694899     -3.711705
  C      36.127210    -20.795224     -3.765051
  O      36.890047    -19.913343     -2.988674
  C      35.036763    -19.978745     -4.434181
  O      35.568343    -19.041525     -5.318842
  C      34.104846    -20.893984     -5.220071
  O      34.775128    -21.432984     -6.315785
  C      32.749455    -23.053753     -5.085496
  O      31.407029    -23.012286     -4.715462
  H      34.934654    -21.443570     -2.098214
  H      32.969542    -21.571675     -3.556129
  H      36.736923    -21.252895     -4.546923
  H      34.462083    -19.475892     -3.647895
  H      33.238244    -20.310675     -5.550106
  H      33.178505    -24.041920     -4.905777
  H      32.788965    -22.862994     -6.153538
  H      35.185642    -20.724799     -6.790472
  H      36.243092    -18.550046     -4.873627
  H      37.714600    -20.306861     -2.751445
  C      31.073578    -23.703517     -3.560062
  H      31.610554    -23.330757     -2.681461
  H      30.006243    -23.576138     -3.389624
  H      31.287306    -24.772986     -3.658221
  H      36.258538    -22.541748     -2.496089
26
Coordinates from ORCA-job 9 Relaxed Surface Scan Step 5
  C      35.606060    -21.911570     -2.955784
  C      33.672964    -22.105444     -4.278187
  O      34.801533    -22.734370     -3.734628
  C      36.161237    -20.771357     -3.795168
  O      36.920230    -19.872566     -3.034626
  C      35.005540    -19.988708     -4.394977
  O      35.453829    -19.008576     -5.279268
  C      34.075290    -20.924762     -5.160587
  O      34.715374    -21.398693     -6.303512
  C      32.840840    -23.158148     -5.017358
  O      31.474570    -22.989251     -4.799474
  H      35.043560    -21.491655     -2.111133
  H      33.060924    -21.706266     -3.461216
  H      36.753208    -21.188343     -4.612579
  H      34.448807    -19.529264     -3.570122
  H      33.166527    -20.375923     -5.429753
  H      33.174027    -24.141360     -4.677599
  H      33.013228    -23.095374     -6.087214
  H      35.071305    -20.657745     -6.772148
  H      36.128017    -18.499220     -4.853753
  H      37.770446    -20.234806     -2.842447
  C      30.953916    -23.599754     -3.668648
  H      31.424210    -23.242575     -2.746207
  H      29.891539    -23.368186     -3.622314
  H      31.072996    -24.687448     -3.710350
  H      36.410736    -22.524778     -2.550665
26
Coordinates from ORCA-job 9 Relaxed Surface Scan Step 6
  C      35.717750    -21.924348     -2.983694
  C      33.738383    -22.178222     -4.217172
  O      34.916901    -22.768167     -3.744095
  C      36.185668    -20.748046     -3.825827
  O      36.942267    -19.831308     -3.084486
  C      34.970319    -20.004518     -4.354741
  O      35.334410    -18.989919     -5.238807
  C      34.042712    -20.964651     -5.094434
  O      34.645567    -21.388075     -6.276714
  C      32.922864    -23.253037     -4.932482
  O      31.558587    -22.971333     -4.878047
  H      35.171813    -21.541161     -2.110775
  H      33.151623    -21.823032     -3.361454
  H      36.754436    -21.125660     -4.678091
  H      34.435974    -19.584105     -3.494934
  H      33.098906    -20.452597     -5.307033
  H      33.146935    -24.211183     -4.457555
  H      33.214645    -23.314503     -5.976427
  H      34.943085    -20.623046     -6.747237
  H      36.007069    -18.460932     -4.835444
  H      37.815338    -20.160055     -2.940711
  C      30.862462    -23.490234     -3.797006
  H      31.253648    -23.135499     -2.837451
  H      29.825903    -23.169825     -3.882079
  H      30.889585    -24.584814     -3.790957
  H      36.564063    -22.507873     -2.622061
26
Coordinates from ORCA-job 9 Relaxed Surface Scan Step 7
  C      35.825255    -21.936001     -3.012401
  C      33.789170    -22.237474     -4.143098
  O      35.006165    -22.795161     -3.735804
  C      36.200255    -20.727914     -3.857884
  O      36.960887    -19.795565     -3.140212
  C      34.933351    -20.022853     -4.311623
  O      35.215359    -18.981376     -5.194367
  C      34.007537    -21.006611     -5.021151
  O      34.570286    -21.397474     -6.233857
  C      32.989752    -23.334336     -4.834121
  O      31.649045    -22.974618     -4.957444
  H      35.326302    -21.590583     -2.097320
  H      33.231307    -21.910434     -3.256299
  H      36.737120    -21.069337     -4.745318
  H      34.427024    -19.636689     -3.419294
  H      33.037886    -20.527772     -5.184988
  H      33.103432    -24.252890     -4.252797
  H      33.390680    -23.508433     -5.828385
  H      34.806559    -20.617971     -6.715029
  H      35.887959    -18.434517     -4.815536
  H      37.852450    -20.092305     -3.050592
  C      30.798702    -23.383390     -3.941070
  H      31.096807    -22.992241     -2.962524
  H      29.802508    -23.009080     -4.168642
  H      30.752409    -24.475103     -3.871432
  H      36.712709    -22.496011     -2.718527
26
Coordinates from ORCA-job 9 Relaxed Surface Scan Step 8
  C      35.922155    -21.950528     -3.045898
  C      33.823078    -22.285780     -4.063711
  O      35.069643    -22.818872     -3.718083
  C      36.203366    -20.713546     -3.889187
  O      36.973030    -19.769669     -3.196292
  C      34.893868    -20.043086     -4.264001
  O      35.098519    -18.978940     -5.140925
  C      33.968349    -21.046724     -4.943761
  O      34.490724    -21.416256     -6.180410
  C      33.042078    -23.407244     -4.733835
  O      31.741794    -23.020306     -5.044978
  H      35.496577    -21.643160     -2.082823
  H      33.297425    -21.976044     -3.150656
  H      36.701351    -21.020319     -4.811162
  H      34.419840    -19.688530     -3.341196
  H      32.980479    -20.594566     -5.064640
  H      33.053127    -24.278387     -4.072935
  H      33.545225    -23.676529     -5.658216
  H      34.667245    -20.629287     -6.674631
  H      35.773316    -18.418229     -4.787088
  H      37.877801    -20.036768     -3.164861
  C      30.768063    -23.274836     -4.090560
  H      30.969449    -22.769759     -3.140012
  H      29.819058    -22.907963     -4.476623
  H      30.670793    -24.347350     -3.892522
  H      36.844560    -22.493462     -2.840710
26
Coordinates from ORCA-job 9 Relaxed Surface Scan Step 9
  C      36.009824    -21.969596     -3.090067
  C      33.849003    -22.333806     -3.985985
  O      35.122140    -22.844308     -3.706221
  C      36.195356    -20.702310     -3.918389
  O      36.970976    -19.748749     -3.245068
  C      34.848806    -20.067901     -4.212084
  O      34.976789    -18.981972     -5.076575
  C      33.926130    -21.090287     -4.865694
  O      34.411781    -21.441986     -6.121412
  C      33.082001    -23.481605     -4.631840
  O      31.839248    -23.105855     -5.127228
  H      35.672135    -21.703551     -2.082430
  H      33.363096    -22.037822     -3.046548
  H      36.652838    -20.969289     -4.872962
  H      34.409229    -19.746325     -3.260483
  H      32.924088    -20.661464     -4.947868
  H      32.994406    -24.297532     -3.908018
  H      33.673999    -23.838098     -5.470052
  H      34.526682    -20.651695     -6.628036
  H      35.651249    -18.407155     -4.745461
  H      37.884654    -19.984091     -3.271927
  C      30.772076    -23.152813     -4.242517
  H      30.898059    -22.470905     -3.394794
  H      29.876087    -22.858062     -4.785226
  H      30.621754    -24.163130     -3.847592
  H      36.958508    -22.495835     -2.985239
26
Coordinates from ORCA-job 9 Relaxed Surface Scan Step 10
  C      36.091829    -21.988637     -3.147919
  C      33.870886    -22.372234     -3.911379
  O      35.164932    -22.865818     -3.699671
  C      36.182712    -20.689382     -3.945788
  O      36.960902    -19.729198     -3.284599
  C      34.805994    -20.091079     -4.162031
  O      34.864018    -18.986141     -5.009929
  C      33.889262    -21.131122     -4.794937
  O      34.347439    -21.470039     -6.063260
  C      33.098315    -23.546134     -4.512011
  O      31.929351    -23.199155     -5.174698
  H      35.860640    -21.768927     -2.101305
  H      33.433152    -22.076357     -2.948508
  H      36.600059    -20.911415     -4.929583
  H      34.399145    -19.800738     -3.186225
  H      32.876537    -20.722597     -4.846802
  H      32.907538    -24.286874     -3.728852
  H      33.754394    -24.001458     -5.248387
  H      34.410537    -20.679846     -6.578831
  H      35.535798    -18.397780     -4.697661
  H      37.879208    -19.931337     -3.366827
  C      30.792210    -23.046985     -4.395663
  H      30.881331    -22.223817     -3.678262
  H      29.958678    -22.828744     -5.060316
  H      30.561253    -23.960923     -3.837863
  H      37.054791    -22.499404     -3.158406
26
Coordinates from ORCA-job 9 Relaxed Surface Scan Step 11
  C      36.169310    -22.004085     -3.221181
  C      33.894847    -22.386105     -3.839215
  O      35.202258    -22.876128     -3.708445
  C      36.182734    -20.674911     -3.977227
  O      36.969583    -19.716976     -3.322372
  C      34.786055    -20.101101     -4.118187
  O      34.786509    -18.981627     -4.949136
  C      33.864685    -21.150623     -4.728818
  O      34.292570    -21.480666     -6.009070
  C      33.081058    -23.577499     -4.360900
  O      32.007238    -23.264349     -5.181774
  H      36.045194    -21.827229     -2.149624
  H      33.524339    -22.075144     -2.853343
  H      36.558591    -20.852178     -4.986246
  H      34.416991    -19.834132     -3.121140
  H      32.846385    -20.752959     -4.749622
  H      32.764299    -24.198101     -3.516708
  H      33.768426    -24.165502     -4.962554
  H      34.313858    -20.691563     -6.529508
  H      35.457328    -18.383451     -4.653950
  H      37.887215    -19.894231     -3.454403
  C      30.798022    -23.006670     -4.553972
  H      30.844830    -22.132322     -3.895185
  H      30.055628    -22.811152     -5.325153
  H      30.462841    -23.862866     -3.958554
  H      37.130119    -22.504572     -3.343430
26
Coordinates from ORCA-job 9 Relaxed Surface Scan Step 12
  C      36.233207    -22.017941     -3.307650
  C      33.932469    -22.397528     -3.770593
  O      35.248362    -22.884271     -3.767219
  C      36.192213    -20.669823     -4.026323
  O      37.010564    -19.721438     -3.396889
  C      34.784663    -20.104139     -4.065947
  O      34.725317    -18.968776     -4.873350
  C      33.831802    -21.148874     -4.639494
  O      34.183280    -21.440881     -5.950334
  C      33.042527    -23.588857     -4.176960
  O      32.101043    -23.344858     -5.166292
  H      36.160125    -21.870612     -2.226337
  H      33.670840    -22.083737     -2.751497
  H      36.505678    -20.818727     -5.060891
  H      34.479109    -19.857805     -3.042693
  H      32.812251    -20.755835     -4.584881
  H      32.564250    -24.005509     -3.285414
  H      33.720932    -24.343138     -4.566684
  H      34.187889    -20.633459     -6.442471
  H      35.408986    -18.370729     -4.608978
  H      37.919712    -19.889057     -3.587409
  C      30.822068    -23.014354     -4.746400
  H      30.800351    -22.098506     -4.145490
  H      30.211053    -22.853835     -5.632337
  H      30.371039    -23.818858     -4.155075
  H      37.191184    -22.504594     -3.492107
26
Coordinates from ORCA-job 9 Relaxed Surface Scan Step 13
  C      36.255557    -22.023592     -3.390357
  C      33.962581    -22.454464     -3.648740
  O      35.278541    -22.896713     -3.850566
  C      36.177533    -20.709507     -4.149670
  O      37.099116    -19.764550     -3.680258
  C      34.791991    -20.119867     -3.953962
  O      34.612178    -18.966845     -4.717119
  C      33.719384    -21.127130     -4.373909
  O      33.756071    -21.290453     -5.751258
  C      33.013510    -23.634694     -3.953425
  O      32.284009    -23.598832     -5.127751
  H      36.130821    -21.818074     -2.317524
  H      33.849628    -22.232802     -2.578769
  H      36.323365    -20.903856     -5.214094
  H      34.673960    -19.889106     -2.889187
  H      32.750285    -20.728828     -4.053448
  H      32.331552    -23.750404     -3.103218
  H      33.645459    -24.518527     -3.989691
  H      33.803056    -20.430136     -6.142671
  H      35.348287    -18.389649     -4.575008
  H      37.968656    -19.968793     -3.985695
  C      31.040727    -22.990032     -5.112968
  H      31.104677    -21.903384     -5.025553
  H      30.550263    -23.221378     -6.056275
  H      30.416384    -23.370627     -4.296100
  H      37.223323    -22.503900     -3.532500
26
Coordinates from ORCA-job 9 Relaxed Surface Scan Step 14
  C      36.261868    -22.055504     -3.480784
  C      33.954522    -22.430276     -3.568645
  O      35.235170    -22.898343     -3.887016
  C      36.161801    -20.730404     -4.216757
  O      37.146937    -19.818311     -3.817673
  C      34.815625    -20.105497     -3.890257
  O      34.603832    -18.932321     -4.613566
  C      33.683356    -21.075975     -4.234211
  O      33.593266    -21.196111     -5.614722
  C      32.940997    -23.557826     -3.801345
  O      32.397793    -23.672817     -5.067242
  H      36.207665    -21.857621     -2.399676
  H      33.929385    -22.240232     -2.485816
  H      36.209130    -20.915221     -5.291729
  H      34.797182    -19.893430     -2.815404
  H      32.753104    -20.669300     -3.818959
  H      32.140016    -23.444169     -3.061267
  H      33.468061    -24.483172     -3.573519
  H      33.639993    -20.324760     -5.981443
  H      35.369296    -18.382148     -4.531764
  H      37.980903    -20.042210     -4.199138
  C      31.160426    -23.092406     -5.296391
  H      31.186436    -22.005106     -5.210187
  H      30.865083    -23.342253     -6.313233
  H      30.401932    -23.485269     -4.609030
  H      37.207136    -22.555458     -3.689942
26
Coordinates from ORCA-job 9 Relaxed Surface Scan Step 15
  C      36.251421    -22.096791     -3.570007
  C      33.926203    -22.374780     -3.496743
  O      35.160752    -22.889529     -3.902889
  C      36.146583    -20.749204     -4.265252
  O      37.194661    -19.886136     -3.920403
  C      34.854406    -20.079742     -3.829370
  O      34.641113    -18.881291     -4.509348
  C      33.663665    -20.996674     -4.112775
  O      33.466348    -21.079008     -5.485621
  C      32.858297    -23.445791     -3.695192
  O      32.499372    -23.708029     -5.004433
  H      36.304247    -21.929190     -2.484551
  H      33.962730    -22.210797     -2.409058
  H      36.107995    -20.907932     -5.344798
  H      34.919880    -19.894905     -2.751273
  H      32.780450    -20.568100     -3.623147
  H      31.982051    -23.160564     -3.101740
  H      33.263190    -24.360698     -3.260538
  H      33.509386    -20.200107     -5.834514
  H      35.432701    -18.364382     -4.470322
  H      37.988711    -20.133022     -4.367249
  C      31.263410    -23.250654     -5.436773
  H      31.184266    -22.164092     -5.384166
  H      31.149499    -23.549085     -6.476835
  H      30.446819    -23.697967     -4.857771
  H      37.152757    -22.627672     -3.874946
26
Coordinates from ORCA-job 9 Relaxed Surface Scan Step 16
  C      36.225646    -22.140372     -3.663056
  C      33.890871    -22.314611     -3.430428
  O      35.075015    -22.876306     -3.911157
  C      36.123674    -20.763620     -4.303228
  O      37.227626    -19.954655     -4.004089
  C      34.891658    -20.055175     -3.770632
  O      34.688636    -18.831140     -4.406763
  C      33.649982    -20.914921     -3.999308
  O      33.353927    -20.961761     -5.356434
  C      32.769527    -23.327408     -3.621675
  O      32.586468    -23.735971     -4.930500
  H      36.401690    -22.024950     -2.585533
  H      33.978018    -22.177852     -2.341698
  H      36.008793    -20.884161     -5.382523
  H      35.029589    -19.903424     -2.694089
  H      32.818316    -20.464495     -3.443956
  H      31.850972    -22.906829     -3.198623
  H      33.032864    -24.202504     -3.023494
  H      33.394823    -20.077469     -5.691809
  H      35.501772    -18.347313     -4.402255
  H      37.980016    -20.219748     -4.508833
  C      31.383959    -23.412812     -5.542819
  H      31.227808    -22.334464     -5.590575
  H      31.420304    -23.799326     -6.559430
  H      30.533691    -23.877082     -5.029190
  H      37.065267    -22.697772     -4.077618
26
Coordinates from ORCA-job 9 Relaxed Surface Scan Step 17
  C      36.190172    -22.178770     -3.769135
  C      33.860260    -22.272011     -3.394027
  O      34.996044    -22.863398     -3.946174
  C      36.096494    -20.763721     -4.327723
  O      37.238290    -20.004746     -4.039927
  C      34.910522    -20.040143     -3.720039
  O      34.719825    -18.790650     -4.309090
  C      33.638380    -20.856984     -3.923706
  O      33.288831    -20.876761     -5.269405
  C      32.688914    -23.238624     -3.562297
  O      32.620532    -23.819333     -4.816129
  H      36.478677    -22.141629     -2.712479
  H      34.001276    -22.157210     -2.308827
  H      35.933381    -20.825204     -5.405980
  H      35.094008    -19.928860     -2.645357
  H      32.839833    -20.395626     -3.330535
  H      31.762800    -22.717110     -3.301096
  H      32.826753    -24.039366     -2.831972
  H      33.323891    -19.988228     -5.594070
  H      35.545401    -18.328452     -4.317183
  H      37.960229    -20.270024     -4.587257
  C      31.506745    -23.537909     -5.596517
  H      31.412761    -22.471063     -5.800089
  H      31.630237    -24.062471     -6.542150
  H      30.584113    -23.896730     -5.124823
  H      36.962545    -22.741117     -4.293729
26
Coordinates from ORCA-job 9 Relaxed Surface Scan Step 18
  C      36.026994    -22.245871     -3.954255
  C      33.767213    -22.275940     -3.317457
  O      34.791700    -22.873642     -4.050627
  C      35.936117    -20.815873     -4.468230
  O      37.139404    -20.116699     -4.312664
  C      34.878801    -20.066913     -3.677657
  O      34.667564    -18.786280     -4.186913
  C      33.549849    -20.816851     -3.724646
  O      32.998598    -20.730342     -4.997756
  C      32.511773    -23.176505     -3.369846
  O      32.416987    -24.043348     -4.437906
  H      36.388240    -22.234943     -2.917975
  H      34.067590    -22.231747     -2.261388
  H      35.630008    -20.835654     -5.516722
  H      35.218154    -20.009384     -2.637278
  H      32.875225    -20.362228     -2.989689
  H      31.622017    -22.539965     -3.295535
  H      32.527975    -23.813852     -2.487501
  H      33.030749    -19.825028     -5.272720
  H      35.504276    -18.356357     -4.288569
  H      37.773397    -20.397454     -4.953302
  C      32.086470    -23.545249     -5.693699
  H      32.899754    -22.971884     -6.132984
  H      31.867202    -24.403556     -6.326929
  H      31.200498    -22.904775     -5.650927
  H      36.734358    -22.825801     -4.546540
26
Coordinates from ORCA-job 9 Relaxed Surface Scan Step 19
  C      35.968750    -22.258246     -4.081819
  C      33.745724    -22.249233     -3.327897
  O      34.705788    -22.831438     -4.155675
  C      35.915036    -20.792213     -4.490912
  O      37.149971    -20.150628     -4.334251
  C      34.914681    -20.058278     -3.616847
  O      34.724020    -18.745662     -4.047041
  C      33.564485    -20.766308     -3.650104
  O      32.976064    -20.624304     -4.903264
  C      32.422853    -23.059105     -3.400517
  O      32.407848    -24.078585     -4.329387
  H      36.383536    -22.338757     -3.069512
  H      34.106458    -22.293151     -2.292052
  H      35.572707    -20.727518     -5.526255
  H      35.295823    -20.069417     -2.589424
  H      32.925218    -20.322611     -2.877539
  H      31.590976    -22.368807     -3.569268
  H      32.261130    -23.532380     -2.433263
  H      33.008678    -19.709929     -5.145618
  H      35.568805    -18.332638     -4.151581
  H      37.748468    -20.409243     -5.016953
  C      32.184006    -23.726079     -5.656903
  H      32.968568    -23.080055     -6.045997
  H      32.157060    -24.648173     -6.234745
  H      31.223722    -23.212453     -5.773054
  H      36.620537    -22.820930     -4.749837
26
Coordinates from ORCA-job 9 Relaxed Surface Scan Step 20
  C      35.916464    -22.230842     -4.199344
  C      33.722830    -22.217943     -3.389564
  O      34.630825    -22.745485     -4.308716
  C      35.907178    -20.742750     -4.513101
  O      37.169669    -20.155123     -4.365707
  C      34.973984    -20.046965     -3.536809
  O      34.813217    -18.697598     -3.849773
  C      33.596034    -20.701888     -3.563327
  O      32.967703    -20.427429     -4.775941
  C      32.351705    -22.926137     -3.513303
  O      32.378757    -24.111969     -4.221526
  H      36.318174    -22.378136     -3.187422
  H      34.117050    -22.396365     -2.381234
  H      35.522977    -20.594968     -5.524659
  H      35.401511    -20.154869     -2.533602
  H      33.006996    -20.301652     -2.729330
  H      31.632303    -22.237485     -3.959273
  H      32.000609    -23.159259     -2.507966
  H      33.043010    -19.499118     -4.944396
  H      35.667395    -18.306853     -3.963358
  H      37.729906    -20.384208     -5.090140
  C      32.210550    -24.010915     -5.598979
  H      32.947475    -23.349414     -6.052329
  H      32.324402    -25.009745     -6.016238
  H      31.208708    -23.642678     -5.846800
  H      36.551482    -22.776345     -4.896878
26
Coordinates from ORCA-job 9 Relaxed Surface Scan Step 21
  C      35.871216    -22.185948     -4.313876
  C      33.690705    -22.181849     -3.472443
  O      34.568170    -22.646354     -4.455253
  C      35.896826    -20.683668     -4.534859
  O      37.179029    -20.137200     -4.402481
  C      35.028398    -20.045006     -3.462356
  O      34.901505    -18.668927     -3.648437
  C      33.624498    -20.648049     -3.479812
  O      32.951577    -20.216235     -4.621135
  C      32.302867    -22.799875     -3.677281
  O      32.326678    -24.108185     -4.129897
  H      36.259954    -22.396877     -3.306551
  H      34.076757    -22.495825     -2.494360
  H      35.471770    -20.458228     -5.515130
  H      35.495792    -20.253195     -2.493416
  H      33.095761    -20.315853     -2.578704
  H      31.735846    -22.173904     -4.365776
  H      31.784421    -22.783862     -2.716932
  H      33.075876    -19.281138     -4.698584
  H      35.762818    -18.297781     -3.773491
  H      37.702336    -20.327976     -5.164645
  C      32.227896    -24.295958     -5.504228
  H      33.025414    -23.786953     -6.044329
  H      32.299391    -25.365640     -5.693264
  H      31.262476    -23.942081     -5.883044
  H      36.492939    -22.709575     -5.039431
26
Coordinates from ORCA-job 9 Relaxed Surface Scan Step 22
  C      35.836194    -22.145207     -4.437840
  C      33.662709    -22.145854     -3.557450
  O      34.519193    -22.562857     -4.582412
  C      35.894927    -20.630438     -4.537523
  O      37.192860    -20.127728     -4.384202
  C      35.058333    -20.054419     -3.406729
  O      34.966686    -18.665439     -3.485152
  C      33.638457    -20.616745     -3.446861
  O      32.954697    -20.082539     -4.537240
  C      32.272548    -22.711317     -3.813814
  O      32.274885    -24.077795     -4.051797
  H      36.246559    -22.451126     -3.464986
  H      34.034813    -22.549467     -2.607320
  H      35.462047    -20.317960     -5.490207
  H      35.532200    -20.349234     -2.463665
  H      33.134853    -20.342827     -2.512776
  H      31.822978    -22.173723     -4.648506
  H      31.660330    -22.520321     -2.930208
  H      33.095450    -19.146617     -4.542745
  H      35.836077    -18.308514     -3.594602
  H      37.699509    -20.269392     -5.167999
  C      32.235254    -24.487839     -5.380127
  H      33.088000    -24.116619     -5.947774
  H      32.252734    -25.576362     -5.385541
  H      31.313110    -24.156222     -5.870212
  H      36.425509    -22.619583     -5.222027
26
Coordinates from ORCA-job 9 Relaxed Surface Scan Step 23
  C      35.804969    -22.100828     -4.569864
  C      33.639402    -22.111232     -3.648952
  O      34.476521    -22.483213     -4.709192
  C      35.900011    -20.583380     -4.527873
  O      37.211569    -20.133155     -4.331849
  C      35.073589    -20.072959     -3.360544
  O      35.018770    -18.680039     -3.339076
  C      33.642281    -20.595292     -3.447895
  O      32.973985    -19.986691     -4.508012
  C      32.247420    -22.651354     -3.924337
  O      32.225171    -24.039354     -3.979955
  H      36.246063    -22.516230     -3.654639
  H      34.007862    -22.576571     -2.726329
  H      35.480735    -20.177298     -5.451113
  H      35.532272    -20.448946     -2.438947
  H      33.137862    -20.369633     -2.501654
  H      31.873324    -22.208940     -4.848147
  H      31.587861    -22.335828     -3.114021
  H      33.118828    -19.053090     -4.452256
  H      35.897940    -18.339039     -3.416116
  H      37.715681    -20.219808     -5.125221
  C      32.238464    -24.624004     -5.242119
  H      33.130715    -24.354852     -5.807299
  H      32.219800    -25.703493     -5.101838
  H      31.354401    -24.337774     -5.822417
  H      36.355420    -22.503139     -5.420051
26
Coordinates from ORCA-job 9 Relaxed Surface Scan Step 24
  C      35.766709    -22.049184     -4.714225
  C      33.611355    -22.082354     -3.752087
  O      34.428620    -22.400913     -4.846797
  C      35.900674    -20.544195     -4.523785
  O      37.224986    -20.154231     -4.287901
  C      35.083215    -20.107780     -3.322369
  O      35.065025    -18.719731     -3.193103
  C      33.641625    -20.585256     -3.458015
  O      32.994724    -19.899725     -4.483319
  C      32.209761    -22.596097     -4.031820
  O      32.125547    -23.979436     -3.916271
  H      36.234851    -22.569854     -3.870567
  H      33.981513    -22.605780     -2.862197
  H      35.498604    -20.042241     -5.406755
  H      35.524678    -20.567255     -2.430656
  H      33.133590    -20.410344     -2.503202
  H      31.893053    -22.250553     -5.017147
  H      31.529814    -22.168743     -3.294172
  H      33.140611    -18.972887     -4.359791
  H      35.953670    -18.397568     -3.233023
  H      37.726756    -20.178952     -5.087069
  C      32.268726    -24.726429     -5.081752
  H      33.249810    -24.591347     -5.537603
  H      32.141127    -25.774208     -4.815172
  H      31.502659    -24.463261     -5.819032
  H      36.279210    -22.367818     -5.621885
